
     RDKit          3D

 84 83  0  0  0  0  0  0  0  0999 V2000
   11.4795    4.0345    1.7421 C   0  0  0  0  0  0  0  0  0  0  0  0
   11.2597    5.4392    2.3046 C   0  0  0  0  0  0  0  0  0  0  0  0
   11.1546    5.4691    3.8332 C   0  0  0  0  0  0  0  0  0  0  0  0
   10.9799    6.8826    4.4217 C   0  0  0  0  0  0  0  0  0  0  0  0
    9.6815    7.5653    4.0162 C   0  0  0  0  0  0  0  0  0  0  0  0
    9.6765    8.5446    3.2975 O   0  0  0  0  0  0  0  0  0  0  0  0
    8.3800    6.9411    4.5106 C   0  0  0  0  0  0  0  0  0  0  0  0
    7.2245    7.9358    4.6858 C   0  0  2  0  0  0  0  0  0  0  0  0
    7.3221    8.6932    3.8864 H   0  0  0  0  0  0  0  0  0  0  0  0
    7.2654    8.5823    5.9477 O   0  0  0  0  0  0  0  0  0  0  0  0
    8.3141    9.4942    6.1588 C   0  0  0  0  0  0  0  0  0  0  0  0
    5.8351    7.2462    4.6327 C   0  0  1  0  0  0  0  0  0  0  0  0
    5.8831    6.4847    5.4125 H   0  0  0  0  0  0  0  0  0  0  0  0
    4.6684    8.2091    5.0402 C   0  0  2  0  0  0  0  0  0  0  0  0
    4.8796    8.4342    6.0975 H   0  0  0  0  0  0  0  0  0  0  0  0
    3.3109    7.4968    4.9733 C   0  0  0  0  0  0  0  0  0  0  0  0
    4.6195    9.5738    4.3163 C   0  0  0  0  0  0  0  0  0  0  0  0
    3.8423   10.6463    5.0867 C   0  0  0  0  0  0  0  0  0  0  0  0
    5.6120    6.5327    3.3679 N   0  0  0  0  0  0  0  0  0  0  0  0
    5.5236    7.3134    2.1310 C   0  0  0  0  0  0  0  0  0  0  0  0
    5.1856    5.2286    3.2314 C   0  0  0  0  0  0  0  0  0  0  0  0
    4.7381    4.8491    2.1553 O   0  0  0  0  0  0  0  0  0  0  0  0
    5.3537    4.1031    4.3070 C   0  0  2  0  0  0  0  0  0  0  0  0
    4.6900    3.3438    3.8675 H   0  0  0  0  0  0  0  0  0  0  0  0
    4.8044    4.3362    5.6499 N   0  0  0  0  0  0  0  0  0  0  0  0
    5.4449    4.6593    6.8140 C   0  0  0  0  0  0  0  0  0  0  0  0
    6.6442    4.8945    6.8726 O   0  0  0  0  0  0  0  0  0  0  0  0
    4.5313    4.8209    8.0672 C   0  0  1  0  0  0  0  0  0  0  0  0
    3.9170    5.7069    7.8234 H   0  0  0  0  0  0  0  0  0  0  0  0
    3.4770    3.6809    8.2613 C   0  0  1  0  0  0  0  0  0  0  0  0
    4.0273    2.2502    8.3612 C   0  0  0  0  0  0  0  0  0  0  0  0
    2.5536    4.0027    9.4419 C   0  0  0  0  0  0  0  0  0  0  0  0
    5.2581    5.1917    9.2676 N   0  0  0  0  0  0  0  0  0  0  0  0
    6.3477    4.3448    9.7354 C   0  0  0  0  0  0  0  0  0  0  0  0
    5.5818    6.6047    9.3700 C   0  0  0  0  0  0  0  0  0  0  0  0
    6.7769    3.4691    4.2810 C   0  0  1  0  0  0  0  0  0  0  0  0
    6.7938    2.1484    5.0630 C   0  0  0  0  0  0  0  0  0  0  0  0
    7.2605    3.2328    2.8428 C   0  0  0  0  0  0  0  0  0  0  0  0
   11.5578    4.0482    0.6435 H   0  0  0  0  0  0  0  0  0  0  0  0
   10.6472    3.3613    2.0069 H   0  0  0  0  0  0  0  0  0  0  0  0
   12.4062    3.5843    2.1363 H   0  0  0  0  0  0  0  0  0  0  0  0
   10.3480    5.8761    1.8594 H   0  0  0  0  0  0  0  0  0  0  0  0
   12.0866    6.1001    1.9885 H   0  0  0  0  0  0  0  0  0  0  0  0
   12.0679    5.0271    4.2685 H   0  0  0  0  0  0  0  0  0  0  0  0
   10.3246    4.8192    4.1640 H   0  0  0  0  0  0  0  0  0  0  0  0
   11.8060    7.5349    4.0988 H   0  0  0  0  0  0  0  0  0  0  0  0
   11.0035    6.8174    5.5239 H   0  0  0  0  0  0  0  0  0  0  0  0
    8.5190    6.3659    5.4390 H   0  0  0  0  0  0  0  0  0  0  0  0
    8.0915    6.2134    3.7326 H   0  0  0  0  0  0  0  0  0  0  0  0
    8.0933   10.0348    7.0913 H   0  0  0  0  0  0  0  0  0  0  0  0
    8.4062   10.2213    5.3306 H   0  0  0  0  0  0  0  0  0  0  0  0
    9.2945    8.9940    6.2807 H   0  0  0  0  0  0  0  0  0  0  0  0
    2.5106    8.1295    5.3858 H   0  0  0  0  0  0  0  0  0  0  0  0
    3.3181    6.5608    5.5505 H   0  0  0  0  0  0  0  0  0  0  0  0
    3.0311    7.2440    3.9377 H   0  0  0  0  0  0  0  0  0  0  0  0
    4.1732    9.4559    3.3144 H   0  0  0  0  0  0  0  0  0  0  0  0
    5.6418    9.9484    4.1539 H   0  0  0  0  0  0  0  0  0  0  0  0
    2.7883   10.3668    5.2448 H   0  0  0  0  0  0  0  0  0  0  0  0
    3.8459   11.6046    4.5430 H   0  0  0  0  0  0  0  0  0  0  0  0
    4.2911   10.8245    6.0781 H   0  0  0  0  0  0  0  0  0  0  0  0
    6.0495    8.2656    2.2566 H   0  0  0  0  0  0  0  0  0  0  0  0
    4.4780    7.5126    1.8432 H   0  0  0  0  0  0  0  0  0  0  0  0
    5.9808    6.7535    1.3043 H   0  0  0  0  0  0  0  0  0  0  0  0
    3.8082    4.1712    5.7221 H   0  0  0  0  0  0  0  0  0  0  0  0
    2.8432    3.7084    7.3542 H   0  0  0  0  0  0  0  0  0  0  0  0
    4.5128    2.0625    9.3305 H   0  0  0  0  0  0  0  0  0  0  0  0
    4.7536    2.0258    7.5648 H   0  0  0  0  0  0  0  0  0  0  0  0
    3.2036    1.5237    8.2707 H   0  0  0  0  0  0  0  0  0  0  0  0
    3.1246    4.0343   10.3812 H   0  0  0  0  0  0  0  0  0  0  0  0
    1.7602    3.2438    9.5367 H   0  0  0  0  0  0  0  0  0  0  0  0
    2.0693    4.9851    9.3194 H   0  0  0  0  0  0  0  0  0  0  0  0
    6.1168    3.2846    9.5785 H   0  0  0  0  0  0  0  0  0  0  0  0
    6.4832    4.4931   10.8215 H   0  0  0  0  0  0  0  0  0  0  0  0
    7.3106    4.5531    9.2334 H   0  0  0  0  0  0  0  0  0  0  0  0
    4.6798    7.2170    9.2050 H   0  0  0  0  0  0  0  0  0  0  0  0
    6.3602    6.9381    8.6527 H   0  0  0  0  0  0  0  0  0  0  0  0
    5.9432    6.8243   10.3886 H   0  0  0  0  0  0  0  0  0  0  0  0
    7.4699    4.1592    4.7792 H   0  0  0  0  0  0  0  0  0  0  0  0
    6.0700    1.4275    4.6451 H   0  0  0  0  0  0  0  0  0  0  0  0
    6.5667    2.2944    6.1274 H   0  0  0  0  0  0  0  0  0  0  0  0
    7.7920    1.6862    5.0053 H   0  0  0  0  0  0  0  0  0  0  0  0
    6.5599    2.5995    2.2758 H   0  0  0  0  0  0  0  0  0  0  0  0
    8.2386    2.7264    2.8617 H   0  0  0  0  0  0  0  0  0  0  0  0
    7.3809    4.1672    2.2752 H   0  0  0  0  0  0  0  0  0  0  0  0
  1  2  1  0
  1 39  1  0
  1 40  1  0
  1 41  1  0
  2  3  1  0
  2 42  1  0
  2 43  1  0
  3  4  1  0
  3 44  1  0
  3 45  1  0
  4  5  1  0
  4 46  1  0
  4 47  1  0
  5  6  2  0
  5  7  1  0
  7  8  1  0
  7 48  1  0
  7 49  1  0
  8  9  1  6
  8 10  1  0
  8 12  1  0
 10 11  1  0
 11 50  1  0
 11 51  1  0
 11 52  1  0
 12 13  1  1
 12 14  1  0
 12 19  1  0
 14 15  1  1
 14 16  1  0
 14 17  1  0
 16 53  1  0
 16 54  1  0
 16 55  1  0
 17 18  1  0
 17 56  1  0
 17 57  1  0
 18 58  1  0
 18 59  1  0
 18 60  1  0
 19 20  1  0
 19 21  1  0
 20 61  1  0
 20 62  1  0
 20 63  1  0
 21 22  2  0
 21 23  1  0
 23 24  1  6
 23 25  1  0
 23 36  1  0
 25 26  1  0
 25 64  1  0
 26 27  2  0
 26 28  1  0
 28 29  1  6
 28 30  1  0
 28 33  1  0
 30 31  1  0
 30 32  1  0
 30 65  1  6
 31 66  1  0
 31 67  1  0
 31 68  1  0
 32 69  1  0
 32 70  1  0
 32 71  1  0
 33 34  1  0
 33 35  1  0
 34 72  1  0
 34 73  1  0
 34 74  1  0
 35 75  1  0
 35 76  1  0
 35 77  1  0
 36 37  1  0
 36 38  1  0
 36 78  1  1
 37 79  1  0
 37 80  1  0
 37 81  1  0
 38 82  1  0
 38 83  1  0
 38 84  1  0
M  END

