
     RDKit          3D

 40 43  0  0  0  0  0  0  0  0999 V2000
   -0.0748   -1.5228   -0.2536 C   0  0  0  0  0  0  0  0  0  0  0  0
   -0.9607   -0.4731   -0.3900 C   0  0  0  0  0  0  0  0  0  0  0  0
   -2.3783   -0.6745   -0.3413 C   0  0  0  0  0  0  0  0  0  0  0  0
   -3.0990   -1.8962   -0.1818 C   0  0  0  0  0  0  0  0  0  0  0  0
   -4.4753   -1.7521   -0.1826 C   0  0  0  0  0  0  0  0  0  0  0  0
   -4.9102   -0.4050   -0.3346 C   0  0  0  0  0  0  0  0  0  0  0  0
   -6.2164    0.1112   -0.3816 C   0  0  0  0  0  0  0  0  0  0  0  0
   -6.6355    1.4551   -0.5429 C   0  0  0  0  0  0  0  0  0  0  0  0
   -8.0329    1.6007   -0.5370 C   0  0  0  0  0  0  0  0  0  0  0  0
   -8.7126    0.4015   -0.3751 C   0  0  0  0  0  0  0  0  0  0  0  0
   -7.6354   -0.9501   -0.2258 S   0  0  0  0  0  0  0  0  0  0  0  0
   -3.5058    0.6858   -0.4734 S   0  0  0  0  0  0  0  0  0  0  0  0
   -0.4293    0.9377   -0.5597 C   0  0  0  0  0  0  0  0  0  0  0  0
    1.0310    0.9797   -1.0168 C   0  0  0  0  0  0  0  0  0  0  0  0
    1.9386    0.0543   -0.1747 C   0  0  1  0  0  0  0  0  0  0  0  0
    2.1013    0.5571    1.2560 C   0  0  0  0  0  0  0  0  0  0  0  0
    1.3532    0.0623    2.3370 C   0  0  0  0  0  0  0  0  0  0  0  0
    1.5218    0.5790    3.6264 C   0  0  0  0  0  0  0  0  0  0  0  0
    2.4443    1.6008    3.8637 C   0  0  0  0  0  0  0  0  0  0  0  0
    3.2013    2.1007    2.7991 C   0  0  0  0  0  0  0  0  0  0  0  0
    3.0301    1.5818    1.5141 C   0  0  0  0  0  0  0  0  0  0  0  0
    1.4153   -1.3902   -0.2961 C   0  0  0  0  0  0  0  0  0  0  0  0
   -0.4652   -2.5380   -0.1344 H   0  0  0  0  0  0  0  0  0  0  0  0
   -2.5964   -2.8573   -0.0770 H   0  0  0  0  0  0  0  0  0  0  0  0
   -5.1798   -2.5793   -0.0825 H   0  0  0  0  0  0  0  0  0  0  0  0
   -5.9276    2.2770   -0.6613 H   0  0  0  0  0  0  0  0  0  0  0  0
   -8.5451    2.5581   -0.6477 H   0  0  0  0  0  0  0  0  0  0  0  0
   -9.7898    0.2443   -0.3336 H   0  0  0  0  0  0  0  0  0  0  0  0
   -0.5409    1.4786    0.3988 H   0  0  0  0  0  0  0  0  0  0  0  0
   -1.0563    1.4848   -1.2848 H   0  0  0  0  0  0  0  0  0  0  0  0
    1.4043    2.0154   -0.9776 H   0  0  0  0  0  0  0  0  0  0  0  0
    1.0934    0.6590   -2.0719 H   0  0  0  0  0  0  0  0  0  0  0  0
    2.9433    0.0831   -0.6286 H   0  0  0  0  0  0  0  0  0  0  0  0
    0.6238   -0.7344    2.1731 H   0  0  0  0  0  0  0  0  0  0  0  0
    0.9267    0.1765    4.4505 H   0  0  0  0  0  0  0  0  0  0  0  0
    2.5766    2.0025    4.8716 H   0  0  0  0  0  0  0  0  0  0  0  0
    3.9327    2.8949    2.9713 H   0  0  0  0  0  0  0  0  0  0  0  0
    3.6339    1.9760    0.6906 H   0  0  0  0  0  0  0  0  0  0  0  0
    1.8753   -2.0346    0.4765 H   0  0  0  0  0  0  0  0  0  0  0  0
    1.7857   -1.8123   -1.2557 H   0  0  0  0  0  0  0  0  0  0  0  0
  1  2  2  0
  1 22  1  0
  1 23  1  0
  2  3  1  0
  2 13  1  0
  3  4  2  0
  3 12  1  0
  4  5  1  0
  4 24  1  0
  5  6  2  0
  5 25  1  0
  6  7  1  0
  6 12  1  0
  7  8  2  0
  7 11  1  0
  8  9  1  0
  8 26  1  0
  9 10  2  0
  9 27  1  0
 10 11  1  0
 10 28  1  0
 13 14  1  0
 13 29  1  0
 13 30  1  0
 14 15  1  0
 14 31  1  0
 14 32  1  0
 15 16  1  0
 15 22  1  0
 15 33  1  6
 16 17  2  0
 16 21  1  0
 17 18  1  0
 17 34  1  0
 18 19  2  0
 18 35  1  0
 19 20  1  0
 19 36  1  0
 20 21  2  0
 20 37  1  0
 21 38  1  0
 22 39  1  0
 22 40  1  0
M  END

