
     RDKit          3D

 65 71  0  0  0  0  0  0  0  0999 V2000
   -1.3756   -4.5617    4.2314 C   0  0  0  0  0  0  0  0  0  0  0  0
   -0.6633   -3.6296    3.2229 C   0  0  1  0  0  0  0  0  0  0  0  0
    0.2985   -4.5183    2.3966 C   0  0  0  0  0  0  0  0  0  0  0  0
   -1.7441   -3.0098    2.3367 C   0  0  0  0  0  0  0  0  0  0  0  0
   -2.0091   -3.2508    1.0277 C   0  0  0  0  0  0  0  0  0  0  0  0
   -3.2164   -2.4600    0.6094 C   0  0  0  0  0  0  0  0  0  0  0  0
   -3.6133   -1.7037    1.8598 C   0  0  0  0  0  0  0  0  0  0  0  0
   -4.7351   -0.6934    1.8804 C   0  0  1  0  0  0  0  0  0  0  0  0
   -6.0349   -1.1797    1.1733 C   0  0  1  0  0  0  0  0  0  0  0  0
   -6.7152   -2.2835    2.0079 C   0  0  0  0  0  0  0  0  0  0  0  0
   -7.0952   -1.7284    3.3959 C   0  0  2  0  0  0  0  0  0  0  0  0
   -8.0577   -0.5358    3.2293 C   0  0  0  0  0  0  0  0  0  0  0  0
   -7.3716    0.5700    2.4032 C   0  0  2  0  0  0  0  0  0  0  0  0
   -7.0014    0.0112    1.0163 C   0  0  0  0  0  0  0  0  0  0  0  0
   -6.0882    1.0299    3.1234 C   0  0  0  0  0  0  0  0  0  0  0  0
   -5.1193   -0.1608    3.2862 C   0  0  1  0  0  0  0  0  0  0  0  0
   -5.8172   -1.2584    4.1183 C   0  0  0  0  0  0  0  0  0  0  0  0
   -2.7397   -2.0443    2.8400 C   0  0  0  0  0  0  0  0  0  0  0  0
    0.1509   -2.5134    3.8811 C   0  0  0  0  0  0  0  0  0  0  0  0
    0.9842   -1.6074    3.1298 C   0  0  0  0  0  0  0  0  0  0  0  0
    0.9526   -1.2171    1.7847 C   0  0  0  0  0  0  0  0  0  0  0  0
    1.5762   -0.0117    1.3884 C   0  0  0  0  0  0  0  0  0  0  0  0
    2.1697    0.8583    2.3316 C   0  0  0  0  0  0  0  0  0  0  0  0
    2.3046    0.4818    3.6588 C   0  0  0  0  0  0  0  0  0  0  0  0
    1.9047   -0.8813    4.0848 C   0  0  1  0  0  0  0  0  0  0  0  0
    1.1458   -1.0083    5.3905 C   0  0  0  0  0  0  0  0  0  0  0  0
    1.3335   -0.3253    6.5836 C   0  0  0  0  0  0  0  0  0  0  0  0
    0.5806   -0.6946    7.7039 C   0  0  0  0  0  0  0  0  0  0  0  0
   -0.3645   -1.7378    7.5992 C   0  0  0  0  0  0  0  0  0  0  0  0
   -0.5729   -2.4215    6.4091 C   0  0  0  0  0  0  0  0  0  0  0  0
    0.1801   -2.0722    5.2482 C   0  0  0  0  0  0  0  0  0  0  0  0
   -1.8276   -5.4009    3.6816 H   0  0  0  0  0  0  0  0  0  0  0  0
   -2.1878   -4.0561    4.7701 H   0  0  0  0  0  0  0  0  0  0  0  0
   -0.6676   -4.9746    4.9663 H   0  0  0  0  0  0  0  0  0  0  0  0
   -0.2580   -5.3287    1.9005 H   0  0  0  0  0  0  0  0  0  0  0  0
    1.0466   -4.9772    3.0610 H   0  0  0  0  0  0  0  0  0  0  0  0
    0.8372   -3.9497    1.6269 H   0  0  0  0  0  0  0  0  0  0  0  0
   -1.4672   -3.9215    0.3615 H   0  0  0  0  0  0  0  0  0  0  0  0
   -4.0270   -3.1232    0.2531 H   0  0  0  0  0  0  0  0  0  0  0  0
   -3.0030   -1.7739   -0.2331 H   0  0  0  0  0  0  0  0  0  0  0  0
   -4.3681    0.1729    1.2934 H   0  0  0  0  0  0  0  0  0  0  0  0
   -5.7843   -1.5705    0.1732 H   0  0  0  0  0  0  0  0  0  0  0  0
   -6.0418   -3.1501    2.1204 H   0  0  0  0  0  0  0  0  0  0  0  0
   -7.6168   -2.6452    1.4832 H   0  0  0  0  0  0  0  0  0  0  0  0
   -7.5848   -2.5201    3.9886 H   0  0  0  0  0  0  0  0  0  0  0  0
   -8.3507   -0.1442    4.2191 H   0  0  0  0  0  0  0  0  0  0  0  0
   -8.9863   -0.8618    2.7286 H   0  0  0  0  0  0  0  0  0  0  0  0
   -8.0577    1.4266    2.2869 H   0  0  0  0  0  0  0  0  0  0  0  0
   -6.5347    0.7994    0.4001 H   0  0  0  0  0  0  0  0  0  0  0  0
   -7.9116   -0.3133    0.4823 H   0  0  0  0  0  0  0  0  0  0  0  0
   -6.3388    1.4453    4.1150 H   0  0  0  0  0  0  0  0  0  0  0  0
   -5.6022    1.8405    2.5531 H   0  0  0  0  0  0  0  0  0  0  0  0
   -4.2099    0.1811    3.8070 H   0  0  0  0  0  0  0  0  0  0  0  0
   -6.0712   -0.8585    5.1155 H   0  0  0  0  0  0  0  0  0  0  0  0
   -5.1422   -2.1128    4.2805 H   0  0  0  0  0  0  0  0  0  0  0  0
   -2.7379   -1.6576    3.8599 H   0  0  0  0  0  0  0  0  0  0  0  0
    0.3381   -1.7606    1.0665 H   0  0  0  0  0  0  0  0  0  0  0  0
    1.5285    0.2886    0.3382 H   0  0  0  0  0  0  0  0  0  0  0  0
    2.5418    1.8321    2.0019 H   0  0  0  0  0  0  0  0  0  0  0  0
    2.8468    1.1165    4.3657 H   0  0  0  0  0  0  0  0  0  0  0  0
    2.8170   -1.5428    4.1867 H   0  0  0  0  0  0  0  0  0  0  0  0
    2.0708    0.4792    6.6511 H   0  0  0  0  0  0  0  0  0  0  0  0
    0.7291   -0.1856    8.6592 H   0  0  0  0  0  0  0  0  0  0  0  0
   -0.9564   -2.0105    8.4773 H   0  0  0  0  0  0  0  0  0  0  0  0
   -1.3324   -3.1982    6.3780 H   0  0  0  0  0  0  0  0  0  0  0  0
  2  1  1  1
  1 32  1  0
  1 33  1  0
  1 34  1  0
  2  3  1  0
  2  4  1  0
  2 19  1  0
  3 35  1  0
  3 36  1  0
  3 37  1  0
  4  5  2  0
  4 18  1  0
  5  6  1  0
  5 38  1  0
  6  7  1  0
  6 39  1  0
  6 40  1  0
  7  8  1  0
  7 18  2  0
  8  9  1  0
  8 16  1  0
  8 41  1  6
  9 10  1  0
  9 14  1  0
  9 42  1  6
 10 11  1  0
 10 43  1  0
 10 44  1  0
 11 12  1  0
 11 17  1  0
 11 45  1  1
 12 13  1  0
 12 46  1  0
 12 47  1  0
 13 14  1  0
 13 15  1  0
 13 48  1  6
 14 49  1  0
 14 50  1  0
 15 16  1  0
 15 51  1  0
 15 52  1  0
 16 17  1  0
 16 53  1  1
 17 54  1  0
 17 55  1  0
 18 56  1  0
 19 20  2  0
 19 31  1  0
 20 21  1  0
 20 25  1  0
 21 22  2  0
 21 57  1  0
 22 23  1  0
 22 58  1  0
 23 24  2  0
 23 59  1  0
 24 25  1  0
 24 60  1  0
 25 26  1  0
 25 61  1  6
 26 27  2  0
 26 31  1  0
 27 28  1  0
 27 62  1  0
 28 29  2  0
 28 63  1  0
 29 30  1  0
 29 64  1  0
 30 31  2  0
 30 65  1  0
M  END

