
     RDKit          3D

 66 70  0  0  0  0  0  0  0  0999 V2000
    0.5471    0.9445   -0.2116 C   0  0  0  0  0  0  0  0  0  0  0  0
    2.0444    0.6518   -0.1229 C   0  0  0  0  0  0  0  0  0  0  0  0
    2.8231    1.1378   -1.3618 C   0  0  0  0  0  0  0  0  0  0  0  0
    4.3002    0.8992   -1.2685 C   0  0  0  0  0  0  0  0  0  0  0  0
    5.1221    1.6797   -0.6053 N   0  0  0  0  0  0  0  0  0  0  0  0
    6.3670    1.0984   -0.7182 C   0  0  0  0  0  0  0  0  0  0  0  0
    7.6025    1.5215   -0.1855 C   0  0  0  0  0  0  0  0  0  0  0  0
    7.6835    2.7629    0.6599 C   0  0  0  0  0  0  0  0  0  0  0  0
    8.7121    0.7250   -0.4742 C   0  0  0  0  0  0  0  0  0  0  0  0
    8.6267   -0.4544   -1.2586 C   0  0  0  0  0  0  0  0  0  0  0  0
    9.8128   -1.3175   -1.4876 C   0  0  0  0  0  0  0  0  0  0  0  0
    9.7307   -2.6022   -1.4579 N   0  0  0  0  0  0  0  0  0  0  0  0
   11.0840   -3.1281   -1.6202 C   0  0  0  0  0  0  0  0  0  0  0  0
   11.9632   -1.9173   -2.0135 C   0  0  0  0  0  0  0  0  0  0  0  0
   11.0948   -0.7845   -1.6803 N   0  0  0  0  0  0  0  0  0  0  0  0
   11.3601    0.4598   -2.3737 C   0  0  0  0  0  0  0  0  0  0  0  0
    7.3952   -0.8812   -1.7699 C   0  0  0  0  0  0  0  0  0  0  0  0
    6.2825   -0.0855   -1.4911 C   0  0  0  0  0  0  0  0  0  0  0  0
    4.9421   -0.1932   -1.8384 N   0  0  0  0  0  0  0  0  0  0  0  0
    4.3548   -1.2651   -2.6319 C   0  0  0  0  0  0  0  0  0  0  0  0
    3.6183   -2.3182   -1.8220 C   0  0  0  0  0  0  0  0  0  0  0  0
    2.2868   -2.6399   -2.1152 C   0  0  0  0  0  0  0  0  0  0  0  0
    1.5932   -3.5920   -1.3647 C   0  0  0  0  0  0  0  0  0  0  0  0
    2.2193   -4.2522   -0.2950 C   0  0  0  0  0  0  0  0  0  0  0  0
    1.4905   -5.2693    0.5137 C   0  0  0  0  0  0  0  0  0  0  0  0
    1.9651   -6.5901    0.6076 C   0  0  0  0  0  0  0  0  0  0  0  0
    1.2866   -7.5576    1.3504 C   0  0  0  0  0  0  0  0  0  0  0  0
    0.1116   -7.2203    2.0284 C   0  0  0  0  0  0  0  0  0  0  0  0
   -0.3704   -5.9121    1.9688 C   0  0  0  0  0  0  0  0  0  0  0  0
    0.3171   -4.9568    1.2209 C   0  0  0  0  0  0  0  0  0  0  0  0
   -0.1126   -3.6301    1.2736 O   0  0  0  0  0  0  0  0  0  0  0  0
   -1.1583   -3.2502    0.5234 C   0  0  0  0  0  0  0  0  0  0  0  0
   -1.7516   -3.9264   -0.2739 O   0  0  0  0  0  0  0  0  0  0  0  0
   -1.4261   -1.9699    0.8093 O   0  0  0  0  0  0  0  0  0  0  0  0
    3.5630   -3.9455   -0.0169 C   0  0  0  0  0  0  0  0  0  0  0  0
    4.2518   -2.9917   -0.7663 C   0  0  0  0  0  0  0  0  0  0  0  0
    0.0165    0.5629    0.6741 H   0  0  0  0  0  0  0  0  0  0  0  0
    0.0975    0.4623   -1.0967 H   0  0  0  0  0  0  0  0  0  0  0  0
    0.3512    2.0271   -0.2898 H   0  0  0  0  0  0  0  0  0  0  0  0
    2.2025   -0.4312    0.0092 H   0  0  0  0  0  0  0  0  0  0  0  0
    2.4762    1.1397    0.7665 H   0  0  0  0  0  0  0  0  0  0  0  0
    2.6803    2.2246   -1.4722 H   0  0  0  0  0  0  0  0  0  0  0  0
    2.4092    0.6667   -2.2684 H   0  0  0  0  0  0  0  0  0  0  0  0
    7.3220    3.6430    0.1030 H   0  0  0  0  0  0  0  0  0  0  0  0
    8.7130    2.9587    0.9939 H   0  0  0  0  0  0  0  0  0  0  0  0
    7.0382    2.6765    1.5495 H   0  0  0  0  0  0  0  0  0  0  0  0
    9.6797    1.0009   -0.0488 H   0  0  0  0  0  0  0  0  0  0  0  0
   11.1129   -3.9397   -2.3662 H   0  0  0  0  0  0  0  0  0  0  0  0
   11.4144   -3.5709   -0.6621 H   0  0  0  0  0  0  0  0  0  0  0  0
   12.1929   -1.9085   -3.0994 H   0  0  0  0  0  0  0  0  0  0  0  0
   12.9232   -1.8705   -1.4729 H   0  0  0  0  0  0  0  0  0  0  0  0
   11.3909    0.3219   -3.4752 H   0  0  0  0  0  0  0  0  0  0  0  0
   12.3358    0.8682   -2.0622 H   0  0  0  0  0  0  0  0  0  0  0  0
   10.5911    1.2069   -2.1452 H   0  0  0  0  0  0  0  0  0  0  0  0
    7.3464   -1.8105   -2.3389 H   0  0  0  0  0  0  0  0  0  0  0  0
    5.1779   -1.7280   -3.1980 H   0  0  0  0  0  0  0  0  0  0  0  0
    3.6741   -0.8289   -3.3785 H   0  0  0  0  0  0  0  0  0  0  0  0
    1.7777   -2.1369   -2.9428 H   0  0  0  0  0  0  0  0  0  0  0  0
    0.5588   -3.8355   -1.6179 H   0  0  0  0  0  0  0  0  0  0  0  0
    2.8765   -6.8569    0.0673 H   0  0  0  0  0  0  0  0  0  0  0  0
    1.6745   -8.5779    1.3968 H   0  0  0  0  0  0  0  0  0  0  0  0
   -0.4264   -7.9713    2.6116 H   0  0  0  0  0  0  0  0  0  0  0  0
   -1.2707   -5.6159    2.5105 H   0  0  0  0  0  0  0  0  0  0  0  0
   -2.1717   -1.7110    0.2456 H   0  0  0  0  0  0  0  0  0  0  0  0
    4.0683   -4.4486    0.8111 H   0  0  0  0  0  0  0  0  0  0  0  0
    5.2909   -2.7619   -0.5165 H   0  0  0  0  0  0  0  0  0  0  0  0
  1  2  1  0
  1 37  1  0
  1 38  1  0
  1 39  1  0
  2  3  1  0
  2 40  1  0
  2 41  1  0
  3  4  1  0
  3 42  1  0
  3 43  1  0
  4  5  2  0
  4 19  1  0
  5  6  1  0
  6  7  2  0
  6 18  1  0
  7  8  1  0
  7  9  1  0
  8 44  1  0
  8 45  1  0
  8 46  1  0
  9 10  2  0
  9 47  1  0
 10 11  1  0
 10 17  1  0
 11 12  2  0
 11 15  1  0
 12 13  1  0
 13 14  1  0
 13 48  1  0
 13 49  1  0
 14 15  1  0
 14 50  1  0
 14 51  1  0
 15 16  1  0
 16 52  1  0
 16 53  1  0
 16 54  1  0
 17 18  2  0
 17 55  1  0
 18 19  1  0
 19 20  1  0
 20 21  1  0
 20 56  1  0
 20 57  1  0
 21 22  2  0
 21 36  1  0
 22 23  1  0
 22 58  1  0
 23 24  2  0
 23 59  1  0
 24 25  1  0
 24 35  1  0
 25 26  2  0
 25 30  1  0
 26 27  1  0
 26 60  1  0
 27 28  2  0
 27 61  1  0
 28 29  1  0
 28 62  1  0
 29 30  2  0
 29 63  1  0
 30 31  1  0
 31 32  1  0
 32 33  2  0
 32 34  1  0
 34 64  1  0
 35 36  2  0
 35 65  1  0
 36 66  1  0
M  END

