
     RDKit          3D

 49 53  0  0  0  0  0  0  0  0999 V2000
    2.2649    0.5778   -2.2223 C   0  0  0  0  0  0  0  0  0  0  0  0
    2.4422    0.1864   -0.7495 C   0  0  0  0  0  0  0  0  0  0  0  0
    3.0079   -1.1386   -0.5307 N   0  0  0  0  0  0  0  0  0  0  0  0
    2.1219   -2.2998   -0.5825 C   0  0  0  0  0  0  0  0  0  0  0  0
    0.7033   -2.0650   -0.0702 C   0  0  0  0  0  0  0  0  0  0  0  0
    4.3747   -1.3440   -0.7453 C   0  0  0  0  0  0  0  0  0  0  0  0
    5.3067   -0.2735   -0.7723 C   0  0  0  0  0  0  0  0  0  0  0  0
    6.6672   -0.4903   -0.9367 C   0  0  0  0  0  0  0  0  0  0  0  0
    7.2283   -1.7894   -1.0969 C   0  0  0  0  0  0  0  0  0  0  0  0
    6.2734   -2.8468   -1.0916 C   0  0  0  0  0  0  0  0  0  0  0  0
    4.9117   -2.6437   -0.9325 C   0  0  0  0  0  0  0  0  0  0  0  0
    6.6567   -4.1583   -1.2577 O   0  0  0  0  0  0  0  0  0  0  0  0
    7.9541   -4.5672   -1.4347 C   0  0  0  0  0  0  0  0  0  0  0  0
    8.1597   -5.7477   -1.5726 O   0  0  0  0  0  0  0  0  0  0  0  0
    8.9799   -3.5062   -1.4373 C   0  0  0  0  0  0  0  0  0  0  0  0
   10.2974   -3.8969   -1.6119 C   0  0  0  0  0  0  0  0  0  0  0  0
   11.3657   -3.0460   -1.6389 N   0  0  0  0  0  0  0  0  0  0  0  0
   11.0116   -1.7800   -1.4762 C   0  0  0  0  0  0  0  0  0  0  0  0
    9.7432   -1.2242   -1.2909 C   0  0  0  0  0  0  0  0  0  0  0  0
    9.9839    0.1846   -1.1674 C   0  0  0  0  0  0  0  0  0  0  0  0
   11.2544    0.5265   -1.2624 N   0  0  0  0  0  0  0  0  0  0  0  0
   11.9255   -0.6718   -1.4558 N   0  0  0  0  0  0  0  0  0  0  0  0
   13.2758   -0.6589   -1.5961 C   0  0  0  0  0  0  0  0  0  0  0  0
   13.9692    0.5997   -1.5426 C   0  0  0  0  0  0  0  0  0  0  0  0
   15.3398    0.6282   -1.6852 C   0  0  0  0  0  0  0  0  0  0  0  0
   16.0651   -0.5674   -1.8824 C   0  0  0  0  0  0  0  0  0  0  0  0
   15.3915   -1.8049   -1.9349 C   0  0  0  0  0  0  0  0  0  0  0  0
   14.0192   -1.8712   -1.7960 C   0  0  0  0  0  0  0  0  0  0  0  0
    8.5999   -2.1170   -1.2645 C   0  0  0  0  0  0  0  0  0  0  0  0
    1.8400    1.5916   -2.3063 H   0  0  0  0  0  0  0  0  0  0  0  0
    1.5841   -0.1164   -2.7414 H   0  0  0  0  0  0  0  0  0  0  0  0
    3.2277    0.5656   -2.7562 H   0  0  0  0  0  0  0  0  0  0  0  0
    1.4731    0.2378   -0.2355 H   0  0  0  0  0  0  0  0  0  0  0  0
    3.0695    0.9312   -0.2372 H   0  0  0  0  0  0  0  0  0  0  0  0
    2.5710   -3.0879    0.0416 H   0  0  0  0  0  0  0  0  0  0  0  0
    2.0714   -2.7213   -1.6095 H   0  0  0  0  0  0  0  0  0  0  0  0
    0.7050   -1.6515    0.9510 H   0  0  0  0  0  0  0  0  0  0  0  0
    0.1743   -3.0302   -0.0399 H   0  0  0  0  0  0  0  0  0  0  0  0
    0.1154   -1.3942   -0.7151 H   0  0  0  0  0  0  0  0  0  0  0  0
    4.9695    0.7554   -0.6564 H   0  0  0  0  0  0  0  0  0  0  0  0
    7.3189    0.3816   -0.9470 H   0  0  0  0  0  0  0  0  0  0  0  0
    4.2887   -3.5341   -0.9644 H   0  0  0  0  0  0  0  0  0  0  0  0
   10.5114   -4.9607   -1.7380 H   0  0  0  0  0  0  0  0  0  0  0  0
    9.2563    0.9791   -1.0067 H   0  0  0  0  0  0  0  0  0  0  0  0
   13.3780    1.4996   -1.3895 H   0  0  0  0  0  0  0  0  0  0  0  0
   15.8686    1.5827   -1.6454 H   0  0  0  0  0  0  0  0  0  0  0  0
   17.1509   -0.5325   -1.9942 H   0  0  0  0  0  0  0  0  0  0  0  0
   15.9602   -2.7244   -2.0872 H   0  0  0  0  0  0  0  0  0  0  0  0
   13.4594   -2.8062   -1.8302 H   0  0  0  0  0  0  0  0  0  0  0  0
  1  2  1  0
  1 30  1  0
  1 31  1  0
  1 32  1  0
  2  3  1  0
  2 33  1  0
  2 34  1  0
  3  4  1  0
  3  6  1  0
  4  5  1  0
  4 35  1  0
  4 36  1  0
  5 37  1  0
  5 38  1  0
  5 39  1  0
  6  7  2  0
  6 11  1  0
  7  8  1  0
  7 40  1  0
  8  9  2  0
  8 41  1  0
  9 10  1  0
  9 29  1  0
 10 11  2  0
 10 12  1  0
 11 42  1  0
 12 13  1  0
 13 14  2  0
 13 15  1  0
 15 16  1  0
 15 29  2  0
 16 17  2  0
 16 43  1  0
 17 18  1  0
 18 19  2  0
 18 22  1  0
 19 20  1  0
 19 29  1  0
 20 21  2  0
 20 44  1  0
 21 22  1  0
 22 23  1  0
 23 24  2  0
 23 28  1  0
 24 25  1  0
 24 45  1  0
 25 26  2  0
 25 46  1  0
 26 27  1  0
 26 47  1  0
 27 28  2  0
 27 48  1  0
 28 49  1  0
M  END

