
     RDKit          3D

 62 66  0  0  0  0  0  0  0  0999 V2000
    7.0508    1.1883   -4.5262 C   0  0  0  0  0  0  0  0  0  0  0  0
    6.4965    0.5693   -3.2642 C   0  0  0  0  0  0  0  0  0  0  0  0
    7.1658   -0.4916   -2.6542 C   0  0  0  0  0  0  0  0  0  0  0  0
    6.6991   -1.1204   -1.4639 C   0  0  0  0  0  0  0  0  0  0  0  0
    7.3417   -2.1980   -0.8158 C   0  0  0  0  0  0  0  0  0  0  0  0
    6.7918   -2.7652    0.3760 C   0  0  0  0  0  0  0  0  0  0  0  0
    7.3477   -4.0053    0.9980 C   0  0  0  0  0  0  0  0  0  0  0  0
    8.2588   -3.8183    2.1482 N   0  0  0  0  0  0  0  0  0  0  0  0
    7.9215   -2.8760    3.2046 C   0  0  0  0  0  0  0  0  0  0  0  0
    8.9820   -1.8008    3.3644 C   0  0  0  0  0  0  0  0  0  0  0  0
    9.3317   -0.9475    2.3070 C   0  0  0  0  0  0  0  0  0  0  0  0
   10.2843    0.0426    2.5434 C   0  0  0  0  0  0  0  0  0  0  0  0
   10.8522    0.1410    3.8180 C   0  0  0  0  0  0  0  0  0  0  0  0
   10.5245   -0.6664    4.8294 N   0  0  0  0  0  0  0  0  0  0  0  0
    9.6172   -1.6138    4.6011 C   0  0  0  0  0  0  0  0  0  0  0  0
    9.3443   -4.7558    2.3750 C   0  0  0  0  0  0  0  0  0  0  0  0
   10.3012   -4.8277    1.2230 C   0  0  0  0  0  0  0  0  0  0  0  0
   10.8717   -3.7756    0.6706 N   0  0  0  0  0  0  0  0  0  0  0  0
   11.6904   -4.2524   -0.2864 N   0  0  0  0  0  0  0  0  0  0  0  0
   11.6445   -5.5384   -0.3304 N   0  0  0  0  0  0  0  0  0  0  0  0
   10.7699   -5.9410    0.6093 N   0  0  0  0  0  0  0  0  0  0  0  0
   10.4928   -7.3668    0.8041 C   0  0  1  0  0  0  0  0  0  0  0  0
    9.9556   -8.0711   -0.4528 C   0  0  0  0  0  0  0  0  0  0  0  0
   10.1628   -9.5492   -0.1079 C   0  0  0  0  0  0  0  0  0  0  0  0
   11.5515   -9.5847    0.5688 C   0  0  0  0  0  0  0  0  0  0  0  0
   11.7400   -8.1891    1.2250 C   0  0  0  0  0  0  0  0  0  0  0  0
    5.5936   -2.2613    0.9486 C   0  0  0  0  0  0  0  0  0  0  0  0
    5.0692   -2.6781    2.0113 O   0  0  0  0  0  0  0  0  0  0  0  0
    4.9983   -1.2001    0.2645 N   0  0  0  0  0  0  0  0  0  0  0  0
    4.1551   -0.8380    0.6950 H   0  0  0  0  0  0  0  0  0  0  0  0
    5.4806   -0.6076   -0.9032 C   0  0  0  0  0  0  0  0  0  0  0  0
    4.8147    0.4518   -1.5140 C   0  0  0  0  0  0  0  0  0  0  0  0
    5.2965    1.0598   -2.6931 C   0  0  0  0  0  0  0  0  0  0  0  0
    4.5419    2.2036   -3.3223 C   0  0  0  0  0  0  0  0  0  0  0  0
    7.9858    0.6971   -4.8340 H   0  0  0  0  0  0  0  0  0  0  0  0
    7.2650    2.2638   -4.3975 H   0  0  0  0  0  0  0  0  0  0  0  0
    6.3408    1.1125   -5.3685 H   0  0  0  0  0  0  0  0  0  0  0  0
    8.0918   -0.8655   -3.1013 H   0  0  0  0  0  0  0  0  0  0  0  0
    8.2595   -2.6028   -1.2486 H   0  0  0  0  0  0  0  0  0  0  0  0
    7.8767   -4.6435    0.2751 H   0  0  0  0  0  0  0  0  0  0  0  0
    6.5155   -4.5889    1.4448 H   0  0  0  0  0  0  0  0  0  0  0  0
    7.8592   -3.4579    4.1428 H   0  0  0  0  0  0  0  0  0  0  0  0
    6.9141   -2.4902    2.9843 H   0  0  0  0  0  0  0  0  0  0  0  0
    8.8656   -1.0579    1.3254 H   0  0  0  0  0  0  0  0  0  0  0  0
   10.5857    0.7270    1.7480 H   0  0  0  0  0  0  0  0  0  0  0  0
   11.6080    0.9065    4.0289 H   0  0  0  0  0  0  0  0  0  0  0  0
    9.3594   -2.2601    5.4515 H   0  0  0  0  0  0  0  0  0  0  0  0
    8.8917   -5.7444    2.5680 H   0  0  0  0  0  0  0  0  0  0  0  0
    9.8851   -4.4537    3.2833 H   0  0  0  0  0  0  0  0  0  0  0  0
    9.7292   -7.4211    1.5948 H   0  0  0  0  0  0  0  0  0  0  0  0
   10.5763   -7.7790   -1.3150 H   0  0  0  0  0  0  0  0  0  0  0  0
    8.9122   -7.8028   -0.6793 H   0  0  0  0  0  0  0  0  0  0  0  0
   10.0950  -10.2055   -0.9879 H   0  0  0  0  0  0  0  0  0  0  0  0
    9.3828   -9.8795    0.6000 H   0  0  0  0  0  0  0  0  0  0  0  0
   12.3343   -9.7490   -0.1874 H   0  0  0  0  0  0  0  0  0  0  0  0
   11.6368  -10.4051    1.2963 H   0  0  0  0  0  0  0  0  0  0  0  0
   12.6427   -7.6901    0.8458 H   0  0  0  0  0  0  0  0  0  0  0  0
   11.8297   -8.2396    2.3206 H   0  0  0  0  0  0  0  0  0  0  0  0
    3.8874    0.8206   -1.0632 H   0  0  0  0  0  0  0  0  0  0  0  0
    3.6339    2.4468   -2.7497 H   0  0  0  0  0  0  0  0  0  0  0  0
    4.2271    1.9778   -4.3573 H   0  0  0  0  0  0  0  0  0  0  0  0
    5.1501    3.1246   -3.3808 H   0  0  0  0  0  0  0  0  0  0  0  0
  1  2  1  0
  1 35  1  0
  1 36  1  0
  1 37  1  0
  2  3  2  0
  2 33  1  0
  3  4  1  0
  3 38  1  0
  4  5  1  0
  4 31  2  0
  5  6  2  0
  5 39  1  0
  6  7  1  0
  6 27  1  0
  7  8  1  0
  7 40  1  0
  7 41  1  0
  8  9  1  0
  8 16  1  0
  9 10  1  0
  9 42  1  0
  9 43  1  0
 10 11  2  0
 10 15  1  0
 11 12  1  0
 11 44  1  0
 12 13  2  0
 12 45  1  0
 13 14  1  0
 13 46  1  0
 14 15  2  0
 15 47  1  0
 16 17  1  0
 16 48  1  0
 16 49  1  0
 17 18  2  0
 17 21  1  0
 18 19  1  0
 19 20  2  0
 20 21  1  0
 21 22  1  0
 22 23  1  0
 22 26  1  0
 22 50  1  1
 23 24  1  0
 23 51  1  0
 23 52  1  0
 24 25  1  0
 24 53  1  0
 24 54  1  0
 25 26  1  0
 25 55  1  0
 25 56  1  0
 26 57  1  0
 26 58  1  0
 27 28  2  0
 27 29  1  0
 29 30  1  0
 29 31  1  0
 31 32  1  0
 32 33  2  0
 32 59  1  0
 33 34  1  0
 34 60  1  0
 34 61  1  0
 34 62  1  0
M  END

