
     RDKit          3D

 41 43  0  0  0  0  0  0  0  0999 V2000
    1.1413   -0.7622    1.0059 O   0  0  0  0  0  0  0  0  0  0  0  0
    2.1584   -0.4567    0.4039 C   0  0  0  0  0  0  0  0  0  0  0  0
    2.9248    0.6495    0.7307 N   0  0  0  0  0  0  0  0  0  0  0  0
    2.7185    1.6002    1.7459 C   0  0  0  0  0  0  0  0  0  0  0  0
    1.7174    1.4887    2.7282 C   0  0  0  0  0  0  0  0  0  0  0  0
    1.5942    2.4715    3.7127 C   0  0  0  0  0  0  0  0  0  0  0  0
    2.4574    3.5691    3.7293 C   0  0  0  0  0  0  0  0  0  0  0  0
    2.2761    4.9046    5.0782 Br  0  0  0  0  0  0  0  0  0  0  0  0
    3.4538    3.6945    2.7574 C   0  0  0  0  0  0  0  0  0  0  0  0
    3.5788    2.7143    1.7752 C   0  0  0  0  0  0  0  0  0  0  0  0
    2.7068   -1.2404   -0.7527 C   0  0  0  0  0  0  0  0  0  0  0  0
    1.9604   -1.9184   -1.6722 C   0  0  0  0  0  0  0  0  0  0  0  0
    0.5360   -2.1004   -1.8533 C   0  0  0  0  0  0  0  0  0  0  0  0
   -0.5817   -1.9277   -1.0463 C   0  0  0  0  0  0  0  0  0  0  0  0
   -1.7988   -2.2644   -1.6938 C   0  0  0  0  0  0  0  0  0  0  0  0
   -1.6199   -2.7027   -2.9868 C   0  0  0  0  0  0  0  0  0  0  0  0
    0.0409   -2.7115   -3.4297 S   0  0  0  0  0  0  0  0  0  0  0  0
    4.1254   -1.1739   -0.8593 N   0  0  0  0  0  0  0  0  0  0  0  0
    4.9165   -1.3130   -1.9853 C   0  0  0  0  0  0  0  0  0  0  0  0
    4.4661   -1.5094   -3.1011 O   0  0  0  0  0  0  0  0  0  0  0  0
    6.4024   -1.2085   -1.7450 C   0  0  0  0  0  0  0  0  0  0  0  0
    7.2415   -1.6491   -2.7816 C   0  0  0  0  0  0  0  0  0  0  0  0
    8.6282   -1.5821   -2.6487 C   0  0  0  0  0  0  0  0  0  0  0  0
    9.1974   -1.0631   -1.4809 C   0  0  0  0  0  0  0  0  0  0  0  0
    8.3721   -0.6072   -0.4486 C   0  0  0  0  0  0  0  0  0  0  0  0
    6.9832   -0.6781   -0.5800 C   0  0  0  0  0  0  0  0  0  0  0  0
    3.6657    0.8732    0.0755 H   0  0  0  0  0  0  0  0  0  0  0  0
    1.0399    0.6388    2.7097 H   0  0  0  0  0  0  0  0  0  0  0  0
    0.8148    2.3781    4.4710 H   0  0  0  0  0  0  0  0  0  0  0  0
    4.1281    4.5524    2.7646 H   0  0  0  0  0  0  0  0  0  0  0  0
    4.3582    2.8180    1.0142 H   0  0  0  0  0  0  0  0  0  0  0  0
    2.5603   -2.3541   -2.4735 H   0  0  0  0  0  0  0  0  0  0  0  0
   -0.4979   -1.5871   -0.0177 H   0  0  0  0  0  0  0  0  0  0  0  0
   -2.7773   -2.1943   -1.2158 H   0  0  0  0  0  0  0  0  0  0  0  0
   -2.3809   -3.0220   -3.6981 H   0  0  0  0  0  0  0  0  0  0  0  0
    4.6205   -1.1909    0.0248 H   0  0  0  0  0  0  0  0  0  0  0  0
    6.7764   -2.0413   -3.6876 H   0  0  0  0  0  0  0  0  0  0  0  0
    9.2696   -1.9347   -3.4602 H   0  0  0  0  0  0  0  0  0  0  0  0
   10.2839   -1.0088   -1.3765 H   0  0  0  0  0  0  0  0  0  0  0  0
    8.8101   -0.1884    0.4606 H   0  0  0  0  0  0  0  0  0  0  0  0
    6.3656   -0.2897    0.2346 H   0  0  0  0  0  0  0  0  0  0  0  0
  1  2  2  0
  2  3  1  0
  2 11  1  0
  3  4  1  0
  3 27  1  0
  4  5  2  0
  4 10  1  0
  5  6  1  0
  5 28  1  0
  6  7  2  0
  6 29  1  0
  7  8  1  0
  7  9  1  0
  9 10  2  0
  9 30  1  0
 10 31  1  0
 11 12  2  0
 11 18  1  0
 12 13  1  0
 12 32  1  0
 13 14  2  0
 13 17  1  0
 14 15  1  0
 14 33  1  0
 15 16  2  0
 15 34  1  0
 16 17  1  0
 16 35  1  0
 18 19  1  0
 18 36  1  0
 19 20  2  0
 19 21  1  0
 21 22  2  0
 21 26  1  0
 22 23  1  0
 22 37  1  0
 23 24  2  0
 23 38  1  0
 24 25  1  0
 24 39  1  0
 25 26  2  0
 25 40  1  0
 26 41  1  0
M  END

