
     RDKit          3D

 54 58  0  0  0  0  0  0  0  0999 V2000
    1.0563   -0.1542   -0.4791 C   0  0  0  0  0  0  0  0  0  0  0  0
    0.1313    0.5487   -1.2415 C   0  0  0  0  0  0  0  0  0  0  0  0
   -1.2968    0.4968   -1.1408 C   0  0  0  0  0  0  0  0  0  0  0  0
   -2.0855    1.3201   -2.0179 C   0  0  0  0  0  0  0  0  0  0  0  0
   -3.4556    1.3299   -1.9801 C   0  0  0  0  0  0  0  0  0  0  0  0
   -4.1793    0.5098   -1.0554 C   0  0  0  0  0  0  0  0  0  0  0  0
   -5.5908    0.4944   -0.9874 C   0  0  0  0  0  0  0  0  0  0  0  0
   -6.2607   -0.3142   -0.0787 C   0  0  0  0  0  0  0  0  0  0  0  0
   -5.5196   -1.1409    0.7983 C   0  0  0  0  0  0  0  0  0  0  0  0
   -4.1384   -1.1499    0.7584 C   0  0  0  0  0  0  0  0  0  0  0  0
   -3.4164   -0.3297   -0.1639 C   0  0  0  0  0  0  0  0  0  0  0  0
   -2.0064   -0.3165   -0.2263 C   0  0  0  0  0  0  0  0  0  0  0  0
    2.4806   -0.0799   -0.5885 C   0  0  0  0  0  0  0  0  0  0  0  0
    3.1719    0.7527   -1.5326 C   0  0  0  0  0  0  0  0  0  0  0  0
    4.5559    0.7961   -1.5971 C   0  0  0  0  0  0  0  0  0  0  0  0
    5.3330    0.0086   -0.7314 C   0  0  0  0  0  0  0  0  0  0  0  0
    6.7856    0.0673   -0.7908 N   0  0  0  0  0  0  0  0  0  0  0  0
    7.4294    1.1982   -0.2799 C   0  0  0  0  0  0  0  0  0  0  0  0
    6.8322    1.9270    0.7796 C   0  0  0  0  0  0  0  0  0  0  0  0
    7.4589    3.0582    1.2833 C   0  0  0  0  0  0  0  0  0  0  0  0
    8.6674    3.5125    0.7325 C   0  0  0  0  0  0  0  0  0  0  0  0
    9.2445    2.8210   -0.3404 C   0  0  0  0  0  0  0  0  0  0  0  0
    8.6395    1.6767   -0.8474 C   0  0  0  0  0  0  0  0  0  0  0  0
    7.4792   -1.0000   -1.3538 C   0  0  0  0  0  0  0  0  0  0  0  0
    6.8401   -1.8234   -2.3189 C   0  0  0  0  0  0  0  0  0  0  0  0
    7.5220   -2.8932   -2.8797 C   0  0  0  0  0  0  0  0  0  0  0  0
    8.8333   -3.1962   -2.4799 C   0  0  0  0  0  0  0  0  0  0  0  0
    9.4586   -2.4142   -1.4986 C   0  0  0  0  0  0  0  0  0  0  0  0
    8.7984   -1.3295   -0.9366 C   0  0  0  0  0  0  0  0  0  0  0  0
    4.6967   -0.8259    0.2097 C   0  0  0  0  0  0  0  0  0  0  0  0
    3.3137   -0.8604    0.2755 C   0  0  0  0  0  0  0  0  0  0  0  0
    0.6833   -0.8339    0.2925 H   0  0  0  0  0  0  0  0  0  0  0  0
    0.5090    1.2289   -2.0122 H   0  0  0  0  0  0  0  0  0  0  0  0
   -1.5610    1.9587   -2.7360 H   0  0  0  0  0  0  0  0  0  0  0  0
   -4.0197    1.9717   -2.6638 H   0  0  0  0  0  0  0  0  0  0  0  0
   -6.1547    1.1373   -1.6706 H   0  0  0  0  0  0  0  0  0  0  0  0
   -7.3529   -0.3140   -0.0393 H   0  0  0  0  0  0  0  0  0  0  0  0
   -6.0465   -1.7784    1.5144 H   0  0  0  0  0  0  0  0  0  0  0  0
   -3.5726   -1.7917    1.4403 H   0  0  0  0  0  0  0  0  0  0  0  0
   -1.4593   -0.9637    0.4632 H   0  0  0  0  0  0  0  0  0  0  0  0
    2.5986    1.3789   -2.2172 H   0  0  0  0  0  0  0  0  0  0  0  0
    5.0463    1.4482   -2.3255 H   0  0  0  0  0  0  0  0  0  0  0  0
    5.8894    1.5776    1.1982 H   0  0  0  0  0  0  0  0  0  0  0  0
    7.0007    3.5987    2.1142 H   0  0  0  0  0  0  0  0  0  0  0  0
    9.1456    4.4120    1.1257 H   0  0  0  0  0  0  0  0  0  0  0  0
   10.1632    3.1916   -0.8006 H   0  0  0  0  0  0  0  0  0  0  0  0
    9.0653    1.1745   -1.7164 H   0  0  0  0  0  0  0  0  0  0  0  0
    5.8202   -1.5900   -2.6206 H   0  0  0  0  0  0  0  0  0  0  0  0
    7.0278   -3.5049   -3.6374 H   0  0  0  0  0  0  0  0  0  0  0  0
    9.3567   -4.0491   -2.9168 H   0  0  0  0  0  0  0  0  0  0  0  0
   10.4630   -2.6691   -1.1535 H   0  0  0  0  0  0  0  0  0  0  0  0
    9.2707   -0.7590   -0.1369 H   0  0  0  0  0  0  0  0  0  0  0  0
    5.2943   -1.4402    0.8888 H   0  0  0  0  0  0  0  0  0  0  0  0
    2.8346   -1.5122    1.0110 H   0  0  0  0  0  0  0  0  0  0  0  0
  1  2  2  0
  1 13  1  0
  1 32  1  0
  2  3  1  0
  2 33  1  0
  3  4  2  0
  3 12  1  0
  4  5  1  0
  4 34  1  0
  5  6  2  0
  5 35  1  0
  6  7  1  0
  6 11  1  0
  7  8  2  0
  7 36  1  0
  8  9  1  0
  8 37  1  0
  9 10  2  0
  9 38  1  0
 10 11  1  0
 10 39  1  0
 11 12  2  0
 12 40  1  0
 13 14  2  0
 13 31  1  0
 14 15  1  0
 14 41  1  0
 15 16  2  0
 15 42  1  0
 16 17  1  0
 16 30  1  0
 17 18  1  0
 17 24  1  0
 18 19  2  0
 18 23  1  0
 19 20  1  0
 19 43  1  0
 20 21  2  0
 20 44  1  0
 21 22  1  0
 21 45  1  0
 22 23  2  0
 22 46  1  0
 23 47  1  0
 24 25  2  0
 24 29  1  0
 25 26  1  0
 25 48  1  0
 26 27  2  0
 26 49  1  0
 27 28  1  0
 27 50  1  0
 28 29  2  0
 28 51  1  0
 29 52  1  0
 30 31  2  0
 30 53  1  0
 31 54  1  0
M  END

