
     RDKit          3D

 69 73  0  0  0  0  0  0  0  0999 V2000
    1.5540    0.0578   -0.1507 C   0  0  0  0  0  0  0  0  0  0  0  0
    2.9878    0.5547   -0.2114 C   0  0  1  0  0  0  0  0  0  0  0  0
    3.6607   -0.2959   -0.3738 H   0  0  0  0  0  0  0  0  0  0  0  0
    3.2480    1.3349   -1.4337 O   0  0  0  0  0  0  0  0  0  0  0  0
    2.6788    2.4411   -1.8441 C   0  0  0  0  0  0  0  0  0  0  0  0
    1.7983    3.2693   -1.0765 C   0  0  0  0  0  0  0  0  0  0  0  0
    1.2772    4.4146   -1.6315 C   0  0  0  0  0  0  0  0  0  0  0  0
    1.6050    4.7848   -2.9690 C   0  0  0  0  0  0  0  0  0  0  0  0
    1.1580    5.8577   -3.5801 O   0  0  0  0  0  0  0  0  0  0  0  0
    0.2667    6.8122   -2.9248 C   0  0  0  0  0  0  0  0  0  0  0  0
   -0.0312    7.9258   -3.8856 C   0  0  0  0  0  0  0  0  0  0  0  0
   -1.1255    7.8349   -4.7586 C   0  0  0  0  0  0  0  0  0  0  0  0
   -1.3861    8.8583   -5.6723 C   0  0  0  0  0  0  0  0  0  0  0  0
   -0.5534    9.9806   -5.7199 C   0  0  0  0  0  0  0  0  0  0  0  0
    0.5379   10.0797   -4.8514 C   0  0  0  0  0  0  0  0  0  0  0  0
    0.7979    9.0561   -3.9377 C   0  0  0  0  0  0  0  0  0  0  0  0
    2.4892    3.9580   -3.7363 C   0  0  0  0  0  0  0  0  0  0  0  0
    3.0130    2.8213   -3.1876 C   0  0  0  0  0  0  0  0  0  0  0  0
    3.3908    1.3207    1.0709 C   0  0  0  0  0  0  0  0  0  0  0  0
    2.7261    2.2627    1.4753 O   0  0  0  0  0  0  0  0  0  0  0  0
    4.4677    0.7890    1.6877 N   0  0  0  0  0  0  0  0  0  0  0  0
    5.1122    1.3032    2.8145 N   0  0  0  0  0  0  0  0  0  0  0  0
    4.4153    1.4626    3.8932 C   0  0  0  0  0  0  0  0  0  0  0  0
    3.0389    1.1028    4.2431 C   0  0  0  0  0  0  0  0  0  0  0  0
    2.3128    2.0812    4.9565 C   0  0  0  0  0  0  0  0  0  0  0  0
    2.9414    3.2297    5.2042 O   0  0  0  0  0  0  0  0  0  0  0  0
    2.5559    4.1555    6.2853 C   0  0  0  0  0  0  0  0  0  0  0  0
    1.7693    3.7698    7.1459 O   0  0  0  0  0  0  0  0  0  0  0  0
    3.2332    5.3974    6.1530 C   0  0  0  0  0  0  0  0  0  0  0  0
    3.0139    6.3989    7.1618 C   0  0  0  0  0  0  0  0  0  0  0  0
    3.6412    7.6289    7.1062 C   0  0  0  0  0  0  0  0  0  0  0  0
    4.5204    7.9257    6.0451 C   0  0  0  0  0  0  0  0  0  0  0  0
    5.3183    9.4969    5.9730 Cl  0  0  0  0  0  0  0  0  0  0  0  0
    4.7614    6.9674    5.0416 C   0  0  0  0  0  0  0  0  0  0  0  0
    4.1362    5.7334    5.0876 C   0  0  0  0  0  0  0  0  0  0  0  0
    0.9437    1.8426    5.2911 C   0  0  0  0  0  0  0  0  0  0  0  0
    0.3391    0.6683    4.9223 C   0  0  0  0  0  0  0  0  0  0  0  0
    1.0493   -0.3718    4.2533 C   0  0  0  0  0  0  0  0  0  0  0  0
    0.4299   -1.6096    3.9379 C   0  0  0  0  0  0  0  0  0  0  0  0
    1.1419   -2.6438    3.3595 C   0  0  0  0  0  0  0  0  0  0  0  0
    2.5225   -2.4723    3.1064 C   0  0  0  0  0  0  0  0  0  0  0  0
    3.1487   -1.2702    3.3873 C   0  0  0  0  0  0  0  0  0  0  0  0
    2.4325   -0.1636    3.9310 C   0  0  0  0  0  0  0  0  0  0  0  0
    1.2730   -0.4359   -1.0931 H   0  0  0  0  0  0  0  0  0  0  0  0
    0.8461    0.8663    0.0738 H   0  0  0  0  0  0  0  0  0  0  0  0
    1.4800   -0.6765    0.6647 H   0  0  0  0  0  0  0  0  0  0  0  0
    1.6167    3.0155   -0.0317 H   0  0  0  0  0  0  0  0  0  0  0  0
    0.6260    5.0427   -1.0267 H   0  0  0  0  0  0  0  0  0  0  0  0
    0.7742    7.1801   -2.0212 H   0  0  0  0  0  0  0  0  0  0  0  0
   -0.6466    6.2725   -2.6333 H   0  0  0  0  0  0  0  0  0  0  0  0
   -1.7811    6.9602   -4.7214 H   0  0  0  0  0  0  0  0  0  0  0  0
   -2.2433    8.7821   -6.3453 H   0  0  0  0  0  0  0  0  0  0  0  0
   -0.7595   10.7837   -6.4316 H   0  0  0  0  0  0  0  0  0  0  0  0
    1.1855   10.9588   -4.8820 H   0  0  0  0  0  0  0  0  0  0  0  0
    1.6496    9.1394   -3.2568 H   0  0  0  0  0  0  0  0  0  0  0  0
    2.7231    4.2690   -4.7548 H   0  0  0  0  0  0  0  0  0  0  0  0
    3.6898    2.1738   -3.7454 H   0  0  0  0  0  0  0  0  0  0  0  0
    5.0580    0.1564    1.1582 H   0  0  0  0  0  0  0  0  0  0  0  0
    4.9761    1.9938    4.6727 H   0  0  0  0  0  0  0  0  0  0  0  0
    2.3357    6.1607    7.9826 H   0  0  0  0  0  0  0  0  0  0  0  0
    3.4638    8.3769    7.8819 H   0  0  0  0  0  0  0  0  0  0  0  0
    5.4490    7.2078    4.2280 H   0  0  0  0  0  0  0  0  0  0  0  0
    4.3305    5.0022    4.3039 H   0  0  0  0  0  0  0  0  0  0  0  0
    0.4056    2.6087    5.8428 H   0  0  0  0  0  0  0  0  0  0  0  0
   -0.7152    0.5062    5.1653 H   0  0  0  0  0  0  0  0  0  0  0  0
   -0.6282   -1.7380    4.1846 H   0  0  0  0  0  0  0  0  0  0  0  0
    0.6548   -3.5956    3.1333 H   0  0  0  0  0  0  0  0  0  0  0  0
    3.1080   -3.3062    2.7084 H   0  0  0  0  0  0  0  0  0  0  0  0
    4.2245   -1.1817    3.2335 H   0  0  0  0  0  0  0  0  0  0  0  0
  1  2  1  0
  1 44  1  0
  1 45  1  0
  1 46  1  0
  2  3  1  1
  2  4  1  0
  2 19  1  0
  4  5  1  0
  5  6  2  0
  5 18  1  0
  6  7  1  0
  6 47  1  0
  7  8  2  0
  7 48  1  0
  8  9  1  0
  8 17  1  0
  9 10  1  0
 10 11  1  0
 10 49  1  0
 10 50  1  0
 11 12  2  0
 11 16  1  0
 12 13  1  0
 12 51  1  0
 13 14  2  0
 13 52  1  0
 14 15  1  0
 14 53  1  0
 15 16  2  0
 15 54  1  0
 16 55  1  0
 17 18  2  0
 17 56  1  0
 18 57  1  0
 19 20  2  0
 19 21  1  0
 21 22  1  0
 21 58  1  0
 22 23  2  0
 23 24  1  0
 23 59  1  0
 24 25  1  0
 24 43  2  0
 25 26  1  0
 25 36  2  0
 26 27  1  0
 27 28  2  0
 27 29  1  0
 29 30  2  0
 29 35  1  0
 30 31  1  0
 30 60  1  0
 31 32  2  0
 31 61  1  0
 32 33  1  0
 32 34  1  0
 34 35  2  0
 34 62  1  0
 35 63  1  0
 36 37  1  0
 36 64  1  0
 37 38  2  0
 37 65  1  0
 38 39  1  0
 38 43  1  0
 39 40  2  0
 39 66  1  0
 40 41  1  0
 40 67  1  0
 41 42  2  0
 41 68  1  0
 42 43  1  0
 42 69  1  0
M  END

