
     RDKit          3D

 86 94  0  0  0  0  0  0  0  0999 V2000
    1.1123    0.1310   -0.1041 O   0  0  0  0  0  0  0  0  0  0  0  0
    2.3541    0.0638   -0.1780 C   0  0  0  0  0  0  0  0  0  0  0  0
    3.1937   -1.1431   -0.2815 C   0  0  0  0  0  0  0  0  0  0  0  0
    2.8170   -2.4827   -0.3221 C   0  0  0  0  0  0  0  0  0  0  0  0
    3.7913   -3.4919   -0.4367 C   0  0  0  0  0  0  0  0  0  0  0  0
    3.4115   -4.9139   -0.4810 C   0  0  0  0  0  0  0  0  0  0  0  0
    4.2383   -5.8931   -1.0832 C   0  0  0  0  0  0  0  0  0  0  0  0
    3.8760   -7.2323   -1.1347 C   0  0  0  0  0  0  0  0  0  0  0  0
    2.6594   -7.6705   -0.5720 C   0  0  0  0  0  0  0  0  0  0  0  0
    2.2888   -9.0315   -0.6149 N   0  0  0  0  0  0  0  0  0  0  0  0
    3.2729  -10.0436   -0.4626 C   0  0  0  0  0  0  0  0  0  0  0  0
    4.2724   -9.9235    0.5215 C   0  0  0  0  0  0  0  0  0  0  0  0
    5.2398  -10.9181    0.6642 C   0  0  0  0  0  0  0  0  0  0  0  0
    5.2225  -12.0496   -0.1586 C   0  0  0  0  0  0  0  0  0  0  0  0
    4.2263  -12.1754   -1.1331 C   0  0  0  0  0  0  0  0  0  0  0  0
    3.2603  -11.1816   -1.2911 C   0  0  0  0  0  0  0  0  0  0  0  0
    0.9318   -9.3979   -0.8130 C   0  0  0  0  0  0  0  0  0  0  0  0
    0.1382   -8.7149   -1.7546 C   0  0  0  0  0  0  0  0  0  0  0  0
   -1.1958   -9.0762   -1.9415 C   0  0  0  0  0  0  0  0  0  0  0  0
   -1.7573  -10.1266   -1.2073 C   0  0  0  0  0  0  0  0  0  0  0  0
   -0.9693  -10.8123   -0.2763 C   0  0  0  0  0  0  0  0  0  0  0  0
    0.3626  -10.4519   -0.0733 C   0  0  0  0  0  0  0  0  0  0  0  0
    1.8241   -6.7098    0.0385 C   0  0  0  0  0  0  0  0  0  0  0  0
    2.1933   -5.3734    0.0771 C   0  0  0  0  0  0  0  0  0  0  0  0
    5.1721   -3.1114   -0.5065 C   0  0  0  0  0  0  0  0  0  0  0  0
    5.5646   -1.7825   -0.4560 C   0  0  0  0  0  0  0  0  0  0  0  0
    4.5863   -0.7754   -0.3457 C   0  0  0  0  0  0  0  0  0  0  0  0
    4.6680    0.6566   -0.2785 C   0  0  0  0  0  0  0  0  0  0  0  0
    5.7545    1.5524   -0.2998 C   0  0  0  0  0  0  0  0  0  0  0  0
    5.5150    2.9161   -0.2244 C   0  0  0  0  0  0  0  0  0  0  0  0
    4.1857    3.4423   -0.1107 C   0  0  0  0  0  0  0  0  0  0  0  0
    3.9701    4.8968   -0.0206 C   0  0  0  0  0  0  0  0  0  0  0  0
    4.9071    5.8261   -0.5337 C   0  0  0  0  0  0  0  0  0  0  0  0
    4.7048    7.1973   -0.4532 C   0  0  0  0  0  0  0  0  0  0  0  0
    3.5423    7.7179    0.1522 C   0  0  0  0  0  0  0  0  0  0  0  0
    3.3319    9.1107    0.2408 N   0  0  0  0  0  0  0  0  0  0  0  0
    3.7260    9.9608   -0.8260 C   0  0  0  0  0  0  0  0  0  0  0  0
    3.4660    9.5964   -2.1607 C   0  0  0  0  0  0  0  0  0  0  0  0
    3.8598   10.4325   -3.2053 C   0  0  0  0  0  0  0  0  0  0  0  0
    4.5058   11.6449   -2.9400 C   0  0  0  0  0  0  0  0  0  0  0  0
    4.7599   12.0129   -1.6142 C   0  0  0  0  0  0  0  0  0  0  0  0
    4.3797   11.1792   -0.5625 C   0  0  0  0  0  0  0  0  0  0  0  0
    2.7346    9.6727    1.3993 C   0  0  0  0  0  0  0  0  0  0  0  0
    3.0996    9.2206    2.6818 C   0  0  0  0  0  0  0  0  0  0  0  0
    2.5068    9.7748    3.8161 C   0  0  0  0  0  0  0  0  0  0  0  0
    1.5536   10.7918    3.6951 C   0  0  0  0  0  0  0  0  0  0  0  0
    1.1933   11.2478    2.4223 C   0  0  0  0  0  0  0  0  0  0  0  0
    1.7718   10.6931    1.2809 C   0  0  0  0  0  0  0  0  0  0  0  0
    2.5957    6.8070    0.6690 C   0  0  0  0  0  0  0  0  0  0  0  0
    2.8093    5.4390    0.5828 C   0  0  0  0  0  0  0  0  0  0  0  0
    3.1032    2.5435   -0.0836 C   0  0  0  0  0  0  0  0  0  0  0  0
    3.3256    1.1721   -0.1718 C   0  0  0  0  0  0  0  0  0  0  0  0
    1.7507   -2.7170   -0.2954 H   0  0  0  0  0  0  0  0  0  0  0  0
    5.1695   -5.5888   -1.5631 H   0  0  0  0  0  0  0  0  0  0  0  0
    4.5281   -7.9513   -1.6336 H   0  0  0  0  0  0  0  0  0  0  0  0
    4.2800   -9.0500    1.1759 H   0  0  0  0  0  0  0  0  0  0  0  0
    6.0072  -10.8130    1.4353 H   0  0  0  0  0  0  0  0  0  0  0  0
    5.9796  -12.8282   -0.0410 H   0  0  0  0  0  0  0  0  0  0  0  0
    4.2070  -13.0510   -1.7869 H   0  0  0  0  0  0  0  0  0  0  0  0
    2.4937  -11.2768   -2.0621 H   0  0  0  0  0  0  0  0  0  0  0  0
    0.5760   -7.9051   -2.3407 H   0  0  0  0  0  0  0  0  0  0  0  0
   -1.7985   -8.5384   -2.6775 H   0  0  0  0  0  0  0  0  0  0  0  0
   -2.8016  -10.4086   -1.3594 H   0  0  0  0  0  0  0  0  0  0  0  0
   -1.3991  -11.6290    0.3092 H   0  0  0  0  0  0  0  0  0  0  0  0
    0.9690  -10.9795    0.6650 H   0  0  0  0  0  0  0  0  0  0  0  0
    0.8896   -7.0268    0.5045 H   0  0  0  0  0  0  0  0  0  0  0  0
    1.5390   -4.6656    0.5878 H   0  0  0  0  0  0  0  0  0  0  0  0
    5.9394   -3.8854   -0.5600 H   0  0  0  0  0  0  0  0  0  0  0  0
    6.6272   -1.5268   -0.4936 H   0  0  0  0  0  0  0  0  0  0  0  0
    6.7816    1.1829   -0.3663 H   0  0  0  0  0  0  0  0  0  0  0  0
    6.3654    3.5996   -0.2093 H   0  0  0  0  0  0  0  0  0  0  0  0
    5.8121    5.4629   -1.0228 H   0  0  0  0  0  0  0  0  0  0  0  0
    5.4546    7.8799   -0.8568 H   0  0  0  0  0  0  0  0  0  0  0  0
    2.9483    8.6586   -2.3701 H   0  0  0  0  0  0  0  0  0  0  0  0
    3.6477   10.1384   -4.2363 H   0  0  0  0  0  0  0  0  0  0  0  0
    4.8091   12.2987   -3.7610 H   0  0  0  0  0  0  0  0  0  0  0  0
    5.2711   12.9538   -1.3952 H   0  0  0  0  0  0  0  0  0  0  0  0
    4.5932   11.4626    0.4696 H   0  0  0  0  0  0  0  0  0  0  0  0
    3.8537    8.4381    2.7815 H   0  0  0  0  0  0  0  0  0  0  0  0
    2.8025    9.4156    4.8050 H   0  0  0  0  0  0  0  0  0  0  0  0
    1.0943   11.2255    4.5863 H   0  0  0  0  0  0  0  0  0  0  0  0
    0.4434   12.0355    2.3146 H   0  0  0  0  0  0  0  0  0  0  0  0
    1.4758   11.0410    0.2896 H   0  0  0  0  0  0  0  0  0  0  0  0
    1.6847    7.1835    1.1372 H   0  0  0  0  0  0  0  0  0  0  0  0
    2.0603    4.7667    1.0030 H   0  0  0  0  0  0  0  0  0  0  0  0
    2.0700    2.8928   -0.0267 H   0  0  0  0  0  0  0  0  0  0  0  0
  1  2  2  0
  2  3  1  0
  2 52  1  0
  3  4  2  0
  3 27  1  0
  4  5  1  0
  4 53  1  0
  5  6  1  0
  5 25  2  0
  6  7  2  0
  6 24  1  0
  7  8  1  0
  7 54  1  0
  8  9  2  0
  8 55  1  0
  9 10  1  0
  9 23  1  0
 10 11  1  0
 10 17  1  0
 11 12  2  0
 11 16  1  0
 12 13  1  0
 12 56  1  0
 13 14  2  0
 13 57  1  0
 14 15  1  0
 14 58  1  0
 15 16  2  0
 15 59  1  0
 16 60  1  0
 17 18  2  0
 17 22  1  0
 18 19  1  0
 18 61  1  0
 19 20  2  0
 19 62  1  0
 20 21  1  0
 20 63  1  0
 21 22  2  0
 21 64  1  0
 22 65  1  0
 23 24  2  0
 23 66  1  0
 24 67  1  0
 25 26  1  0
 25 68  1  0
 26 27  2  0
 26 69  1  0
 27 28  1  0
 28 29  2  0
 28 52  1  0
 29 30  1  0
 29 70  1  0
 30 31  2  0
 30 71  1  0
 31 32  1  0
 31 51  1  0
 32 33  2  0
 32 50  1  0
 33 34  1  0
 33 72  1  0
 34 35  2  0
 34 73  1  0
 35 36  1  0
 35 49  1  0
 36 37  1  0
 36 43  1  0
 37 38  2  0
 37 42  1  0
 38 39  1  0
 38 74  1  0
 39 40  2  0
 39 75  1  0
 40 41  1  0
 40 76  1  0
 41 42  2  0
 41 77  1  0
 42 78  1  0
 43 44  2  0
 43 48  1  0
 44 45  1  0
 44 79  1  0
 45 46  2  0
 45 80  1  0
 46 47  1  0
 46 81  1  0
 47 48  2  0
 47 82  1  0
 48 83  1  0
 49 50  2  0
 49 84  1  0
 50 85  1  0
 51 52  2  0
 51 86  1  0
M  END

