
     RDKit          3D

 48 50  0  0  0  0  0  0  0  0999 V2000
    6.7912   -2.2215   -0.9003 C   0  0  0  0  0  0  0  0  0  0  0  0
    6.3699   -1.2776    0.2153 C   0  0  0  0  0  0  0  0  0  0  0  0
    4.9639   -1.1635    0.1851 O   0  0  0  0  0  0  0  0  0  0  0  0
    4.2943   -0.6797    1.3731 C   0  0  1  0  0  0  0  0  0  0  0  0
    4.7929    0.7276    1.7263 C   0  0  0  0  0  0  0  0  0  0  0  0
    2.8168   -0.6684    0.9378 C   0  0  0  0  0  0  0  0  0  0  0  0
    1.8099   -0.1753    1.9755 C   0  0  0  0  0  0  0  0  0  0  0  0
    4.5130   -1.6542    2.5246 C   0  0  0  0  0  0  0  0  0  0  0  0
    5.4186   -1.3905    3.4659 N   0  0  0  0  0  0  0  0  0  0  0  0
    5.3876   -2.5511    4.2905 O   0  0  0  0  0  0  0  0  0  0  0  0
    4.3312   -3.3474    3.8089 C   0  0  0  0  0  0  0  0  0  0  0  0
    4.5789   -4.8294    3.9272 C   0  0  0  0  0  0  0  0  0  0  0  0
    3.6303   -5.6454    3.0376 C   0  0  1  0  0  0  0  0  0  0  0  0
    3.9506   -7.1548    3.0479 C   0  0  0  0  0  0  0  0  0  0  0  0
    2.8334   -8.0270    2.3589 C   0  0  1  0  0  0  0  0  0  0  0  0
    1.8376   -8.6632    3.3523 C   0  0  0  0  0  0  0  0  0  0  0  0
    0.7542   -7.5684    3.5783 C   0  0  0  0  0  0  0  0  0  0  0  0
    1.1727   -6.4003    2.6569 C   0  0  1  0  0  0  0  0  0  0  0  0
    2.1426   -5.3589    3.3350 C   0  0  0  0  0  0  0  0  0  0  0  0
    1.9756   -7.0828    1.6589 N   0  0  0  0  0  0  0  0  0  0  0  0
    3.8638   -2.8175    2.6298 N   0  0  0  0  0  0  0  0  0  0  0  0
    7.8891   -2.3071   -0.9490 H   0  0  0  0  0  0  0  0  0  0  0  0
    6.4269   -1.8575   -1.8747 H   0  0  0  0  0  0  0  0  0  0  0  0
    6.3675   -3.2248   -0.7342 H   0  0  0  0  0  0  0  0  0  0  0  0
    6.8513   -0.2889    0.0665 H   0  0  0  0  0  0  0  0  0  0  0  0
    6.7161   -1.6558    1.1940 H   0  0  0  0  0  0  0  0  0  0  0  0
    4.6765    1.3934    0.8559 H   0  0  0  0  0  0  0  0  0  0  0  0
    5.8466    0.7097    2.0335 H   0  0  0  0  0  0  0  0  0  0  0  0
    4.2288    1.1415    2.5738 H   0  0  0  0  0  0  0  0  0  0  0  0
    2.5766   -1.7026    0.6492 H   0  0  0  0  0  0  0  0  0  0  0  0
    2.7570   -0.0568    0.0215 H   0  0  0  0  0  0  0  0  0  0  0  0
    1.8665   -0.7729    2.8982 H   0  0  0  0  0  0  0  0  0  0  0  0
    0.7819   -0.2551    1.5838 H   0  0  0  0  0  0  0  0  0  0  0  0
    1.9707    0.8808    2.2458 H   0  0  0  0  0  0  0  0  0  0  0  0
    4.4936   -5.1756    4.9770 H   0  0  0  0  0  0  0  0  0  0  0  0
    5.6187   -5.0703    3.6195 H   0  0  0  0  0  0  0  0  0  0  0  0
    3.8097   -5.2700    2.0161 H   0  0  0  0  0  0  0  0  0  0  0  0
    4.0562   -7.5326    4.0767 H   0  0  0  0  0  0  0  0  0  0  0  0
    4.9113   -7.3334    2.5454 H   0  0  0  0  0  0  0  0  0  0  0  0
    3.2674   -8.7420    1.6475 H   0  0  0  0  0  0  0  0  0  0  0  0
    2.3497   -8.9627    4.2744 H   0  0  0  0  0  0  0  0  0  0  0  0
    1.3908   -9.5676    2.9146 H   0  0  0  0  0  0  0  0  0  0  0  0
    0.6963   -7.2312    4.6197 H   0  0  0  0  0  0  0  0  0  0  0  0
   -0.2403   -7.9422    3.2966 H   0  0  0  0  0  0  0  0  0  0  0  0
    0.3288   -5.8882    2.1761 H   0  0  0  0  0  0  0  0  0  0  0  0
    1.9292   -5.3867    4.4137 H   0  0  0  0  0  0  0  0  0  0  0  0
    1.9235   -4.3468    2.9785 H   0  0  0  0  0  0  0  0  0  0  0  0
    2.2746   -6.6130    0.8043 H   0  0  0  0  0  0  0  0  0  0  0  0
  1  2  1  0
  1 22  1  0
  1 23  1  0
  1 24  1  0
  2  3  1  0
  2 25  1  0
  2 26  1  0
  4  3  1  6
  4  5  1  0
  4  6  1  0
  4  8  1  0
  5 27  1  0
  5 28  1  0
  5 29  1  0
  6  7  1  0
  6 30  1  0
  6 31  1  0
  7 32  1  0
  7 33  1  0
  7 34  1  0
  8  9  2  0
  8 21  1  0
  9 10  1  0
 10 11  1  0
 11 12  1  0
 11 21  2  0
 12 13  1  0
 12 35  1  0
 12 36  1  0
 13 14  1  0
 13 19  1  0
 13 37  1  6
 14 15  1  0
 14 38  1  0
 14 39  1  0
 15 16  1  0
 15 20  1  0
 15 40  1  6
 16 17  1  0
 16 41  1  0
 16 42  1  0
 17 18  1  0
 17 43  1  0
 17 44  1  0
 18 19  1  0
 18 20  1  0
 18 45  1  6
 19 46  1  0
 19 47  1  0
 20 48  1  0
M  END

