
     RDKit          3D

 36 37  0  0  0  0  0  0  0  0999 V2000
    4.9519   -4.2794    0.9887 O   0  0  0  0  0  0  0  0  0  0  0  0
    3.9663   -4.2375    0.2981 C   0  0  0  0  0  0  0  0  0  0  0  0
    3.7937   -5.0315   -0.7517 O   0  0  0  0  0  0  0  0  0  0  0  0
    2.7790   -3.2831    0.6090 C   0  0  1  0  0  0  0  0  0  0  0  0
    1.8778   -3.9169    0.6923 H   0  0  0  0  0  0  0  0  0  0  0  0
    3.0192   -2.4374    1.8689 C   0  0  0  0  0  0  0  0  0  0  0  0
    2.4051   -1.0695    1.5493 C   0  0  0  0  0  0  0  0  0  0  0  0
    2.6800   -0.9077    0.0535 C   0  0  0  0  0  0  0  0  0  0  0  0
    2.5184   -2.2807   -0.4591 N   0  0  0  0  0  0  0  0  0  0  0  0
    1.9781   -2.6604   -1.6326 C   0  0  0  0  0  0  0  0  0  0  0  0
    1.7637   -3.8476   -1.9100 O   0  0  0  0  0  0  0  0  0  0  0  0
    1.5527   -1.6007   -2.6479 C   0  0  0  0  0  0  0  0  0  0  0  0
    2.5756   -0.6448   -2.8344 O   0  0  0  0  0  0  0  0  0  0  0  0
    2.4249    0.3273   -3.7709 C   0  0  0  0  0  0  0  0  0  0  0  0
    1.3077    0.4368   -4.6094 C   0  0  0  0  0  0  0  0  0  0  0  0
    1.2379    1.4707   -5.5494 C   0  0  0  0  0  0  0  0  0  0  0  0
    2.2702    2.4001   -5.6647 C   0  0  0  0  0  0  0  0  0  0  0  0
    3.3841    2.2919   -4.8270 C   0  0  0  0  0  0  0  0  0  0  0  0
    3.4742    1.2686   -3.8816 C   0  0  0  0  0  0  0  0  0  0  0  0
    4.6780    1.1734   -2.9740 C   0  0  1  0  0  0  0  0  0  0  0  0
    5.3040   -0.0080   -3.0746 F   0  0  0  0  0  0  0  0  0  0  0  0
    5.5829    2.1278   -3.2518 F   0  0  0  0  0  0  0  0  0  0  0  0
    4.3357    1.3306   -1.6748 F   0  0  0  0  0  0  0  0  0  0  0  0
    2.9526   -4.7956   -1.2250 H   0  0  0  0  0  0  0  0  0  0  0  0
    4.1041   -2.3610    2.0313 H   0  0  0  0  0  0  0  0  0  0  0  0
    2.5886   -2.9109    2.7624 H   0  0  0  0  0  0  0  0  0  0  0  0
    2.8405   -0.2530    2.1436 H   0  0  0  0  0  0  0  0  0  0  0  0
    1.3171   -1.0752    1.7311 H   0  0  0  0  0  0  0  0  0  0  0  0
    3.7025   -0.5482   -0.1399 H   0  0  0  0  0  0  0  0  0  0  0  0
    1.9930   -0.2152   -0.4473 H   0  0  0  0  0  0  0  0  0  0  0  0
    0.6173   -1.1151   -2.3049 H   0  0  0  0  0  0  0  0  0  0  0  0
    1.3373   -2.1492   -3.5775 H   0  0  0  0  0  0  0  0  0  0  0  0
    0.4902   -0.2802   -4.5411 H   0  0  0  0  0  0  0  0  0  0  0  0
    0.3604    1.5410   -6.1970 H   0  0  0  0  0  0  0  0  0  0  0  0
    2.2140    3.2052   -6.3998 H   0  0  0  0  0  0  0  0  0  0  0  0
    4.2015    3.0099   -4.9027 H   0  0  0  0  0  0  0  0  0  0  0  0
  1  2  2  0
  2  3  1  0
  2  4  1  0
  3 24  1  0
  4  5  1  1
  4  6  1  0
  4  9  1  0
  6  7  1  0
  6 25  1  0
  6 26  1  0
  7  8  1  0
  7 27  1  0
  7 28  1  0
  8  9  1  0
  8 29  1  0
  8 30  1  0
  9 10  1  0
 10 11  2  0
 10 12  1  0
 12 13  1  0
 12 31  1  0
 12 32  1  0
 13 14  1  0
 14 15  2  0
 14 19  1  0
 15 16  1  0
 15 33  1  0
 16 17  2  0
 16 34  1  0
 17 18  1  0
 17 35  1  0
 18 19  2  0
 18 36  1  0
 19 20  1  0
 20 21  1  1
 20 22  1  0
 20 23  1  0
M  END

