
     RDKit          3D

 37 37  0  0  0  0  0  0  0  0999 V2000
    1.0859   -0.0139   -0.0566 C   0  0  0  0  0  0  0  0  0  0  0  0
    2.6259   -0.0353   -0.0688 C   0  0  1  0  0  0  0  0  0  0  0  0
    3.1381   -1.0939    0.9248 C   0  0  0  0  0  0  0  0  0  0  0  0
    3.0971   -0.3726   -1.4972 C   0  0  0  0  0  0  0  0  0  0  0  0
    3.1567    1.3930    0.3218 C   0  0  1  0  0  0  0  0  0  0  0  0
    2.7275    2.0937   -0.4279 H   0  0  0  0  0  0  0  0  0  0  0  0
    2.5962    1.8109    1.6303 C   0  0  0  0  0  0  0  0  0  0  0  0
    2.1312    2.1221    2.6449 N   0  0  0  0  0  0  0  0  0  0  0  0
    4.6103    1.4748    0.3377 N   0  0  0  0  0  0  0  0  0  0  0  0
    5.2204    2.7199   -0.1249 C   0  0  1  0  0  0  0  0  0  0  0  0
    4.8020    3.0328   -1.1095 H   0  0  0  0  0  0  0  0  0  0  0  0
    4.9419    3.9143    0.8242 C   0  0  0  0  0  0  0  0  0  0  0  0
    5.4703    3.7729    2.1134 O   0  0  0  0  0  0  0  0  0  0  0  0
    6.7168    2.5211   -0.2997 C   0  0  0  0  0  0  0  0  0  0  0  0
    7.3928    3.0860   -1.3927 C   0  0  0  0  0  0  0  0  0  0  0  0
    8.7773    2.9520   -1.5251 C   0  0  0  0  0  0  0  0  0  0  0  0
    9.5099    2.2490   -0.5631 C   0  0  0  0  0  0  0  0  0  0  0  0
    8.8481    1.6813    0.5292 C   0  0  0  0  0  0  0  0  0  0  0  0
    7.4621    1.8158    0.6625 C   0  0  0  0  0  0  0  0  0  0  0  0
    0.6923   -0.9965   -0.3605 H   0  0  0  0  0  0  0  0  0  0  0  0
    0.6887    0.7368   -0.7598 H   0  0  0  0  0  0  0  0  0  0  0  0
    0.6877    0.2131    0.9434 H   0  0  0  0  0  0  0  0  0  0  0  0
    2.7555   -2.0896    0.6496 H   0  0  0  0  0  0  0  0  0  0  0  0
    2.8025   -0.8725    1.9495 H   0  0  0  0  0  0  0  0  0  0  0  0
    4.2374   -1.1497    0.9387 H   0  0  0  0  0  0  0  0  0  0  0  0
    2.6731   -1.3386   -1.8126 H   0  0  0  0  0  0  0  0  0  0  0  0
    4.1918   -0.4627   -1.5801 H   0  0  0  0  0  0  0  0  0  0  0  0
    2.7652    0.3905   -2.2202 H   0  0  0  0  0  0  0  0  0  0  0  0
    5.0106    0.6921   -0.1692 H   0  0  0  0  0  0  0  0  0  0  0  0
    3.8547    4.0419    0.9464 H   0  0  0  0  0  0  0  0  0  0  0  0
    5.3138    4.8263    0.3139 H   0  0  0  0  0  0  0  0  0  0  0  0
    6.4323    3.7076    2.0416 H   0  0  0  0  0  0  0  0  0  0  0  0
    6.8260    3.6336   -2.1515 H   0  0  0  0  0  0  0  0  0  0  0  0
    9.2859    3.3942   -2.3857 H   0  0  0  0  0  0  0  0  0  0  0  0
   10.5925    2.1415   -0.6674 H   0  0  0  0  0  0  0  0  0  0  0  0
    9.4132    1.1279    1.2840 H   0  0  0  0  0  0  0  0  0  0  0  0
    6.9389    1.3659    1.5089 H   0  0  0  0  0  0  0  0  0  0  0  0
  2  1  1  6
  1 20  1  0
  1 21  1  0
  1 22  1  0
  2  3  1  0
  2  4  1  0
  2  5  1  0
  3 23  1  0
  3 24  1  0
  3 25  1  0
  4 26  1  0
  4 27  1  0
  4 28  1  0
  5  6  1  6
  5  7  1  0
  5  9  1  0
  7  8  3  0
  9 10  1  0
  9 29  1  0
 10 11  1  6
 10 12  1  0
 10 14  1  0
 12 13  1  0
 12 30  1  0
 12 31  1  0
 13 32  1  0
 14 15  2  0
 14 19  1  0
 15 16  1  0
 15 33  1  0
 16 17  2  0
 16 34  1  0
 17 18  1  0
 17 35  1  0
 18 19  2  0
 18 36  1  0
 19 37  1  0
M  END

