
     RDKit          3D

 33 34  0  0  0  0  0  0  0  0999 V2000
    2.1556    4.4275   -0.4158 C   0  0  0  0  0  0  0  0  0  0  0  0
    2.9781    3.1551   -0.2273 C   0  0  0  0  0  0  0  0  0  0  0  0
    3.3986    2.9480    1.1593 N   0  0  0  0  0  0  0  0  0  0  0  0
    4.4894    3.4315    1.7827 C   0  0  0  0  0  0  0  0  0  0  0  0
    4.4367    3.0178    3.1311 C   0  0  0  0  0  0  0  0  0  0  0  0
    3.3247    2.2957    3.2997 N   0  0  0  0  0  0  0  0  0  0  0  0
    2.8675    1.6608    4.5860 C   0  0  0  0  0  0  0  0  0  0  0  0
    3.5667    0.3799    4.9844 C   0  0  0  0  0  0  0  0  0  0  0  0
    2.9387   -0.8166    4.6656 C   0  0  0  0  0  0  0  0  0  0  0  0
    3.4463   -2.0743    5.0518 C   0  0  0  0  0  0  0  0  0  0  0  0
    4.6347   -2.0950    5.8103 C   0  0  0  0  0  0  0  0  0  0  0  0
    5.2770   -0.9236    6.1654 C   0  0  0  0  0  0  0  0  0  0  0  0
    4.7904    0.3781    5.7759 C   0  0  0  0  0  0  0  0  0  0  0  0
    5.4766    1.5690    6.1858 C   0  0  0  0  0  0  0  0  0  0  0  0
    6.5040    1.4402    7.1391 N   0  0  0  0  0  0  0  0  0  0  0  0
    5.2646    2.7405    5.7289 O   0  0  0  0  0  0  0  0  0  0  0  0
    2.6139    2.2201    2.0957 C   0  0  0  0  0  0  0  0  0  0  0  0
    1.5580    1.6836    1.8626 O   0  0  0  0  0  0  0  0  0  0  0  0
    1.8667    4.5246   -1.4728 H   0  0  0  0  0  0  0  0  0  0  0  0
    2.7281    5.3249   -0.1342 H   0  0  0  0  0  0  0  0  0  0  0  0
    1.2357    4.3936    0.1868 H   0  0  0  0  0  0  0  0  0  0  0  0
    3.8877    3.1678   -0.8457 H   0  0  0  0  0  0  0  0  0  0  0  0
    2.3906    2.2692   -0.5056 H   0  0  0  0  0  0  0  0  0  0  0  0
    5.2545    4.0159    1.2785 H   0  0  0  0  0  0  0  0  0  0  0  0
    5.1007    3.1451    4.0059 H   0  0  0  0  0  0  0  0  0  0  0  0
    1.7983    1.4776    4.4274 H   0  0  0  0  0  0  0  0  0  0  0  0
    3.0034    2.4403    5.3420 H   0  0  0  0  0  0  0  0  0  0  0  0
    2.0014   -0.7796    4.1009 H   0  0  0  0  0  0  0  0  0  0  0  0
    2.9303   -2.9948    4.7763 H   0  0  0  0  0  0  0  0  0  0  0  0
    5.0645   -3.0523    6.1216 H   0  0  0  0  0  0  0  0  0  0  0  0
    6.2152   -0.9849    6.7196 H   0  0  0  0  0  0  0  0  0  0  0  0
    6.3401    0.7696    7.8852 H   0  0  0  0  0  0  0  0  0  0  0  0
    6.7784    2.3521    7.4906 H   0  0  0  0  0  0  0  0  0  0  0  0
  1  2  1  0
  1 19  1  0
  1 20  1  0
  1 21  1  0
  2  3  1  0
  2 22  1  0
  2 23  1  0
  3  4  1  0
  3 17  1  0
  4  5  2  0
  4 24  1  0
  5  6  1  0
  5 25  1  0
  6  7  1  0
  6 17  1  0
  7  8  1  0
  7 26  1  0
  7 27  1  0
  8  9  2  0
  8 13  1  0
  9 10  1  0
  9 28  1  0
 10 11  2  0
 10 29  1  0
 11 12  1  0
 11 30  1  0
 12 13  2  0
 12 31  1  0
 13 14  1  0
 14 15  1  0
 14 16  2  0
 15 32  1  0
 15 33  1  0
 17 18  2  0
M  END

