
     RDKit          3D

 65 66  0  0  0  0  0  0  0  0999 V2000
    3.9944   -3.5844  -10.7362 C   0  0  0  0  0  0  0  0  0  0  0  0
    4.3829   -3.7798   -9.2703 C   0  0  0  0  0  0  0  0  0  0  0  0
    5.1811   -2.6088   -8.6891 C   0  0  0  0  0  0  0  0  0  0  0  0
    5.5623   -2.8219   -7.2231 C   0  0  0  0  0  0  0  0  0  0  0  0
    6.3693   -1.7367   -6.6910 N   0  0  0  0  0  0  0  0  0  0  0  0
    6.1446   -1.1840   -5.4705 C   0  0  0  0  0  0  0  0  0  0  0  0
    5.2147   -1.4872   -4.7360 O   0  0  0  0  0  0  0  0  0  0  0  0
    7.1662   -0.1085   -5.0192 C   0  0  2  0  0  0  0  0  0  0  0  0
    6.7628    0.2237   -4.0543 H   0  0  0  0  0  0  0  0  0  0  0  0
    7.2465    1.1341   -5.9222 C   0  0  0  0  0  0  0  0  0  0  0  0
    5.9038    1.8611   -6.0195 C   0  0  0  0  0  0  0  0  0  0  0  0
    8.4768   -0.7288   -4.6878 N   0  0  0  0  0  0  0  0  0  0  0  0
    8.6258   -1.0972   -3.2751 C   0  0  0  0  0  0  0  0  0  0  0  0
    8.8509    0.0819   -2.3436 C   0  0  0  0  0  0  0  0  0  0  0  0
    9.6720    1.1605   -2.7039 C   0  0  0  0  0  0  0  0  0  0  0  0
    9.9172    2.2116   -1.8178 C   0  0  0  0  0  0  0  0  0  0  0  0
    9.3342    2.1871   -0.5479 C   0  0  0  0  0  0  0  0  0  0  0  0
    9.6335    3.4995    0.5683 Cl  0  0  0  0  0  0  0  0  0  0  0  0
    8.5094    1.1260   -0.1656 C   0  0  0  0  0  0  0  0  0  0  0  0
    8.2721    0.0855   -1.0662 C   0  0  0  0  0  0  0  0  0  0  0  0
    9.3537   -1.0863   -5.6658 C   0  0  0  0  0  0  0  0  0  0  0  0
    9.1162   -0.9517   -6.8660 O   0  0  0  0  0  0  0  0  0  0  0  0
   10.7049   -1.7131   -5.2771 C   0  0  0  0  0  0  0  0  0  0  0  0
   10.5870   -3.1780   -5.2249 N   0  0  0  0  0  0  0  0  0  0  0  0
   10.2387   -3.9103   -6.4065 C   0  0  0  0  0  0  0  0  0  0  0  0
    9.1720   -4.8178   -6.3622 C   0  0  0  0  0  0  0  0  0  0  0  0
    8.8294   -5.5181   -7.5201 C   0  0  0  0  0  0  0  0  0  0  0  0
    7.4832   -6.6311   -7.4790 Cl  0  0  0  0  0  0  0  0  0  0  0  0
    9.5187   -5.3332   -8.7211 C   0  0  0  0  0  0  0  0  0  0  0  0
   10.5756   -4.4196   -8.7430 C   0  0  0  0  0  0  0  0  0  0  0  0
   11.4534   -4.1669  -10.2310 Cl  0  0  0  0  0  0  0  0  0  0  0  0
   10.9461   -3.7086   -7.6009 C   0  0  0  0  0  0  0  0  0  0  0  0
   11.3402   -4.0157   -3.9471 S   0  0  1  0  0  0  0  0  0  0  0  0
   13.0365   -4.3018   -4.4792 C   0  0  0  0  0  0  0  0  0  0  0  0
   11.3857   -3.0787   -2.8199 O   0  0  0  0  0  0  0  0  0  0  0  0
   10.6934   -5.3181   -3.8339 O   0  0  0  0  0  0  0  0  0  0  0  0
    3.4245   -4.4449  -11.1214 H   0  0  0  0  0  0  0  0  0  0  0  0
    4.8856   -3.4628  -11.3749 H   0  0  0  0  0  0  0  0  0  0  0  0
    3.3698   -2.6852  -10.8694 H   0  0  0  0  0  0  0  0  0  0  0  0
    4.9736   -4.7077   -9.1633 H   0  0  0  0  0  0  0  0  0  0  0  0
    3.4720   -3.9332   -8.6637 H   0  0  0  0  0  0  0  0  0  0  0  0
    4.6016   -1.6728   -8.7795 H   0  0  0  0  0  0  0  0  0  0  0  0
    6.0992   -2.4603   -9.2883 H   0  0  0  0  0  0  0  0  0  0  0  0
    6.1010   -3.7829   -7.1203 H   0  0  0  0  0  0  0  0  0  0  0  0
    4.6663   -2.8921   -6.5893 H   0  0  0  0  0  0  0  0  0  0  0  0
    7.2445   -1.4901   -7.1549 H   0  0  0  0  0  0  0  0  0  0  0  0
    7.6088    0.8640   -6.9224 H   0  0  0  0  0  0  0  0  0  0  0  0
    8.0043    1.8089   -5.4882 H   0  0  0  0  0  0  0  0  0  0  0  0
    5.1323    1.2278   -6.4858 H   0  0  0  0  0  0  0  0  0  0  0  0
    6.0006    2.7700   -6.6334 H   0  0  0  0  0  0  0  0  0  0  0  0
    5.5294    2.1635   -5.0278 H   0  0  0  0  0  0  0  0  0  0  0  0
    9.4458   -1.8168   -3.1583 H   0  0  0  0  0  0  0  0  0  0  0  0
    7.7124   -1.6328   -2.9688 H   0  0  0  0  0  0  0  0  0  0  0  0
   10.1236    1.1914   -3.6986 H   0  0  0  0  0  0  0  0  0  0  0  0
   10.5554    3.0486   -2.1062 H   0  0  0  0  0  0  0  0  0  0  0  0
    8.0532    1.1217    0.8256 H   0  0  0  0  0  0  0  0  0  0  0  0
    7.6205   -0.7397   -0.7653 H   0  0  0  0  0  0  0  0  0  0  0  0
   11.0805   -1.3737   -4.3060 H   0  0  0  0  0  0  0  0  0  0  0  0
   11.4116   -1.3883   -6.0582 H   0  0  0  0  0  0  0  0  0  0  0  0
    8.6275   -4.9732   -5.4330 H   0  0  0  0  0  0  0  0  0  0  0  0
    9.2347   -5.8807   -9.6193 H   0  0  0  0  0  0  0  0  0  0  0  0
   11.7676   -2.9951   -7.6559 H   0  0  0  0  0  0  0  0  0  0  0  0
   13.5331   -3.3353   -4.6355 H   0  0  0  0  0  0  0  0  0  0  0  0
   13.0226   -4.9053   -5.3960 H   0  0  0  0  0  0  0  0  0  0  0  0
   13.5223   -4.8551   -3.6638 H   0  0  0  0  0  0  0  0  0  0  0  0
  1  2  1  0
  1 37  1  0
  1 38  1  0
  1 39  1  0
  2  3  1  0
  2 40  1  0
  2 41  1  0
  3  4  1  0
  3 42  1  0
  3 43  1  0
  4  5  1  0
  4 44  1  0
  4 45  1  0
  5  6  1  0
  5 46  1  0
  6  7  2  0
  6  8  1  0
  8  9  1  1
  8 10  1  0
  8 12  1  0
 10 11  1  0
 10 47  1  0
 10 48  1  0
 11 49  1  0
 11 50  1  0
 11 51  1  0
 12 13  1  0
 12 21  1  0
 13 14  1  0
 13 52  1  0
 13 53  1  0
 14 15  2  0
 14 20  1  0
 15 16  1  0
 15 54  1  0
 16 17  2  0
 16 55  1  0
 17 18  1  0
 17 19  1  0
 19 20  2  0
 19 56  1  0
 20 57  1  0
 21 22  2  0
 21 23  1  0
 23 24  1  0
 23 58  1  0
 23 59  1  0
 24 25  1  0
 33 24  1  6
 25 26  2  0
 25 32  1  0
 26 27  1  0
 26 60  1  0
 27 28  1  0
 27 29  2  0
 29 30  1  0
 29 61  1  0
 30 31  1  0
 30 32  2  0
 32 62  1  0
 33 34  1  0
 33 35  2  0
 33 36  2  0
 34 63  1  0
 34 64  1  0
 34 65  1  0
M  END

