
     RDKit          3D

 81 87  0  0  0  0  0  0  0  0999 V2000
    4.3406   -1.5923   -6.6516 C   0  0  0  0  0  0  0  0  0  0  0  0
    5.2532   -1.3778   -5.5979 O   0  0  0  0  0  0  0  0  0  0  0  0
    4.9997   -1.9000   -4.3746 C   0  0  0  0  0  0  0  0  0  0  0  0
    5.9685   -1.6386   -3.3807 C   0  0  0  0  0  0  0  0  0  0  0  0
    5.7871   -2.1360   -2.1044 C   0  0  0  0  0  0  0  0  0  0  0  0
    4.6521   -2.9063   -1.7603 C   0  0  0  0  0  0  0  0  0  0  0  0
    3.6842   -3.1649   -2.7701 C   0  0  0  0  0  0  0  0  0  0  0  0
    3.8621   -2.6575   -4.0720 C   0  0  0  0  0  0  0  0  0  0  0  0
    2.5594   -3.9132   -2.4172 N   0  0  0  0  0  0  0  0  0  0  0  0
    1.5633   -4.2276   -3.4093 C   0  0  0  0  0  0  0  0  0  0  0  0
    1.8193   -5.2980   -4.2755 C   0  0  0  0  0  0  0  0  0  0  0  0
    0.8819   -5.6756   -5.2369 C   0  0  0  0  0  0  0  0  0  0  0  0
   -0.3289   -4.9833   -5.3205 C   0  0  0  0  0  0  0  0  0  0  0  0
   -0.5892   -3.9261   -4.4483 C   0  0  0  0  0  0  0  0  0  0  0  0
    0.3436   -3.5172   -3.4751 C   0  0  0  0  0  0  0  0  0  0  0  0
   -0.0097   -2.4024   -2.5491 C   0  0  0  0  0  0  0  0  0  0  0  0
   -1.2355   -2.4392   -1.8586 C   0  0  0  0  0  0  0  0  0  0  0  0
   -1.6069   -1.4011   -1.0016 C   0  0  0  0  0  0  0  0  0  0  0  0
   -0.7611   -0.3031   -0.8216 C   0  0  0  0  0  0  0  0  0  0  0  0
    0.4567   -0.2515   -1.5056 C   0  0  0  0  0  0  0  0  0  0  0  0
    0.8309   -1.2908   -2.3607 C   0  0  0  0  0  0  0  0  0  0  0  0
    2.4168   -4.4381   -1.1328 C   0  0  0  0  0  0  0  0  0  0  0  0
    1.3606   -5.2368   -0.7598 C   0  0  0  0  0  0  0  0  0  0  0  0
    1.2302   -5.7450    0.5754 C   0  0  0  0  0  0  0  0  0  0  0  0
    2.2810   -5.3871    1.5263 C   0  0  0  0  0  0  0  0  0  0  0  0
    3.3407   -4.6080    1.1718 C   0  0  0  0  0  0  0  0  0  0  0  0
    3.4741   -4.0992   -0.1683 C   0  0  0  0  0  0  0  0  0  0  0  0
    4.5201   -3.3735   -0.4806 N   0  0  0  0  0  0  0  0  0  0  0  0
    2.1882   -5.8539    2.7966 O   0  0  0  0  0  0  0  0  0  0  0  0
    1.1288   -6.6452    3.1793 C   0  0  0  0  0  0  0  0  0  0  0  0
    0.1420   -6.9584    2.2147 C   0  0  0  0  0  0  0  0  0  0  0  0
   -0.9408   -7.7656    2.5999 C   0  0  0  0  0  0  0  0  0  0  0  0
   -1.0579   -8.2597    3.9006 C   0  0  0  0  0  0  0  0  0  0  0  0
   -2.2653   -9.1420    4.2803 C   0  0  1  0  0  0  0  0  0  0  0  0
   -2.2982  -10.3894    3.3676 C   0  0  0  0  0  0  0  0  0  0  0  0
   -2.2076   -9.6203    5.7424 C   0  0  0  0  0  0  0  0  0  0  0  0
   -3.5691   -8.3329    4.0882 C   0  0  0  0  0  0  0  0  0  0  0  0
   -0.0488   -7.9177    4.8199 C   0  0  0  0  0  0  0  0  0  0  0  0
    1.0618   -7.1124    4.5036 C   0  0  0  0  0  0  0  0  0  0  0  0
    2.1398   -6.7664    5.5568 C   0  0  1  0  0  0  0  0  0  0  0  0
    3.5174   -7.3076    5.1040 C   0  0  0  0  0  0  0  0  0  0  0  0
    2.2106   -5.2336    5.7602 C   0  0  0  0  0  0  0  0  0  0  0  0
    1.8246   -7.3978    6.9272 C   0  0  0  0  0  0  0  0  0  0  0  0
    0.2107   -6.4982    0.9143 N   0  0  0  0  0  0  0  0  0  0  0  0
    4.7557   -1.0850   -7.5326 H   0  0  0  0  0  0  0  0  0  0  0  0
    3.3466   -1.1653   -6.4278 H   0  0  0  0  0  0  0  0  0  0  0  0
    4.2220   -2.6669   -6.8795 H   0  0  0  0  0  0  0  0  0  0  0  0
    6.8433   -1.0447   -3.6500 H   0  0  0  0  0  0  0  0  0  0  0  0
    6.5166   -1.9510   -1.3136 H   0  0  0  0  0  0  0  0  0  0  0  0
    3.1128   -2.8636   -4.8318 H   0  0  0  0  0  0  0  0  0  0  0  0
    2.7648   -5.8357   -4.1776 H   0  0  0  0  0  0  0  0  0  0  0  0
    1.0935   -6.5105   -5.9089 H   0  0  0  0  0  0  0  0  0  0  0  0
   -1.0748   -5.2664   -6.0673 H   0  0  0  0  0  0  0  0  0  0  0  0
   -1.5342   -3.3834   -4.5236 H   0  0  0  0  0  0  0  0  0  0  0  0
   -1.8936   -3.3031   -1.9788 H   0  0  0  0  0  0  0  0  0  0  0  0
   -2.5582   -1.4556   -0.4663 H   0  0  0  0  0  0  0  0  0  0  0  0
   -1.0494    0.5092   -0.1496 H   0  0  0  0  0  0  0  0  0  0  0  0
    1.1223    0.6058   -1.3767 H   0  0  0  0  0  0  0  0  0  0  0  0
    1.7759   -1.2247   -2.9022 H   0  0  0  0  0  0  0  0  0  0  0  0
    0.5720   -5.5133   -1.4567 H   0  0  0  0  0  0  0  0  0  0  0  0
    4.1211   -4.3540    1.8894 H   0  0  0  0  0  0  0  0  0  0  0  0
   -1.6776   -7.9811    1.8244 H   0  0  0  0  0  0  0  0  0  0  0  0
   -1.3815  -10.9888    3.4864 H   0  0  0  0  0  0  0  0  0  0  0  0
   -2.3843  -10.1171    2.3050 H   0  0  0  0  0  0  0  0  0  0  0  0
   -3.1599  -11.0295    3.6199 H   0  0  0  0  0  0  0  0  0  0  0  0
   -1.3102  -10.2270    5.9415 H   0  0  0  0  0  0  0  0  0  0  0  0
   -3.0855  -10.2478    5.9635 H   0  0  0  0  0  0  0  0  0  0  0  0
   -2.2172   -8.7791    6.4531 H   0  0  0  0  0  0  0  0  0  0  0  0
   -3.6900   -7.9944    3.0480 H   0  0  0  0  0  0  0  0  0  0  0  0
   -3.5785   -7.4395    4.7330 H   0  0  0  0  0  0  0  0  0  0  0  0
   -4.4477   -8.9480    4.3450 H   0  0  0  0  0  0  0  0  0  0  0  0
   -0.1272   -8.2946    5.8349 H   0  0  0  0  0  0  0  0  0  0  0  0
    3.8399   -6.8674    4.1519 H   0  0  0  0  0  0  0  0  0  0  0  0
    3.4849   -8.4023    4.9829 H   0  0  0  0  0  0  0  0  0  0  0  0
    4.2826   -7.0751    5.8631 H   0  0  0  0  0  0  0  0  0  0  0  0
    2.4830   -4.7075    4.8365 H   0  0  0  0  0  0  0  0  0  0  0  0
    2.9650   -4.9889    6.5263 H   0  0  0  0  0  0  0  0  0  0  0  0
    1.2406   -4.8409    6.1056 H   0  0  0  0  0  0  0  0  0  0  0  0
    1.7890   -8.4974    6.8804 H   0  0  0  0  0  0  0  0  0  0  0  0
    0.8691   -7.0394    7.3407 H   0  0  0  0  0  0  0  0  0  0  0  0
    2.6155   -7.1248    7.6431 H   0  0  0  0  0  0  0  0  0  0  0  0
  1  2  1  0
  1 45  1  0
  1 46  1  0
  1 47  1  0
  2  3  1  0
  3  4  2  0
  3  8  1  0
  4  5  1  0
  4 48  1  0
  5  6  2  0
  5 49  1  0
  6  7  1  0
  6 28  1  0
  7  8  2  0
  7  9  1  0
  8 50  1  0
  9 10  1  0
  9 22  1  0
 10 11  2  0
 10 15  1  0
 11 12  1  0
 11 51  1  0
 12 13  2  0
 12 52  1  0
 13 14  1  0
 13 53  1  0
 14 15  2  0
 14 54  1  0
 15 16  1  0
 16 17  2  0
 16 21  1  0
 17 18  1  0
 17 55  1  0
 18 19  2  0
 18 56  1  0
 19 20  1  0
 19 57  1  0
 20 21  2  0
 20 58  1  0
 21 59  1  0
 22 23  2  0
 22 27  1  0
 23 24  1  0
 23 60  1  0
 24 25  1  0
 24 44  2  0
 25 26  2  0
 25 29  1  0
 26 27  1  0
 26 61  1  0
 27 28  2  0
 29 30  1  0
 30 31  2  0
 30 39  1  0
 31 32  1  0
 31 44  1  0
 32 33  2  0
 32 62  1  0
 33 34  1  0
 33 38  1  0
 34 35  1  6
 34 36  1  0
 34 37  1  0
 35 63  1  0
 35 64  1  0
 35 65  1  0
 36 66  1  0
 36 67  1  0
 36 68  1  0
 37 69  1  0
 37 70  1  0
 37 71  1  0
 38 39  2  0
 38 72  1  0
 39 40  1  0
 40 41  1  6
 40 42  1  0
 40 43  1  0
 41 73  1  0
 41 74  1  0
 41 75  1  0
 42 76  1  0
 42 77  1  0
 42 78  1  0
 43 79  1  0
 43 80  1  0
 43 81  1  0
M  END

