
     RDKit          3D

 70 72  0  0  0  0  0  0  0  0999 V2000
    1.1217    0.0920   -1.7110 C   0  0  0  0  0  0  0  0  0  0  0  0
    2.4140    0.5780   -1.3729 O   0  0  0  0  0  0  0  0  0  0  0  0
    3.0816    1.2157   -2.3695 C   0  0  0  0  0  0  0  0  0  0  0  0
    2.6423    1.3595   -3.4938 O   0  0  0  0  0  0  0  0  0  0  0  0
    4.2837    1.6620   -1.9278 N   0  0  0  0  0  0  0  0  0  0  0  0
    5.2360    2.3015   -2.8045 C   0  0  1  0  0  0  0  0  0  0  0  0
    5.1352    1.8566   -3.8094 H   0  0  0  0  0  0  0  0  0  0  0  0
    4.9878    3.8293   -2.9709 C   0  0  0  0  0  0  0  0  0  0  0  0
    5.2107    4.6521   -1.7220 C   0  0  0  0  0  0  0  0  0  0  0  0
    6.4232    5.3341   -1.5221 C   0  0  0  0  0  0  0  0  0  0  0  0
    6.6459    6.0745   -0.3574 C   0  0  0  0  0  0  0  0  0  0  0  0
    5.6590    6.1463    0.6296 C   0  0  0  0  0  0  0  0  0  0  0  0
    4.4458    5.4773    0.4408 C   0  0  0  0  0  0  0  0  0  0  0  0
    4.2240    4.7398   -0.7253 C   0  0  0  0  0  0  0  0  0  0  0  0
    6.6447    1.9806   -2.2620 C   0  0  0  0  0  0  0  0  0  0  0  0
    6.7844    1.3972   -1.1835 O   0  0  0  0  0  0  0  0  0  0  0  0
    7.6631    2.3531   -3.0537 N   0  0  0  0  0  0  0  0  0  0  0  0
    9.0744    2.4084   -2.6772 C   0  0  1  0  0  0  0  0  0  0  0  0
    9.1679    3.0889   -1.8018 H   0  0  0  0  0  0  0  0  0  0  0  0
    9.6308    1.0456   -2.1317 C   0  0  0  0  0  0  0  0  0  0  0  0
    9.3877   -0.1107   -3.0355 C   0  0  0  0  0  0  0  0  0  0  0  0
   10.2358   -0.3625   -4.1554 C   0  0  0  0  0  0  0  0  0  0  0  0
    9.9931   -1.4027   -5.0201 C   0  0  0  0  0  0  0  0  0  0  0  0
    8.8514   -2.2404   -4.8101 C   0  0  0  0  0  0  0  0  0  0  0  0
    8.5148   -3.2561   -5.6500 N   0  0  0  0  0  0  0  0  0  0  0  0
    9.1586   -3.6703   -7.2015 S   0  0  1  0  0  0  0  0  0  0  0  0
   10.5973   -3.5211   -7.1604 O   0  0  0  0  0  0  0  0  0  0  0  0
    8.4578   -4.8874   -7.5129 O   0  0  0  0  0  0  0  0  0  0  0  0
    8.5345   -2.4896   -8.0998 O   0  0  0  0  0  0  0  0  0  0  0  0
    8.0016   -2.0089   -3.6781 C   0  0  0  0  0  0  0  0  0  0  0  0
    8.2666   -0.9682   -2.8232 C   0  0  0  0  0  0  0  0  0  0  0  0
    9.7994    2.9173   -3.9055 C   0  0  0  0  0  0  0  0  0  0  0  0
    9.1011    3.7439   -4.7504 N   0  0  0  0  0  0  0  0  0  0  0  0
    9.9026    4.5806   -5.4328 C   0  0  0  0  0  0  0  0  0  0  0  0
    9.2931    5.4605   -6.5306 C   0  0  1  0  0  0  0  0  0  0  0  0
    8.1471    6.3030   -5.9332 C   0  0  0  0  0  0  0  0  0  0  0  0
   10.3377    6.4072   -7.1460 C   0  0  0  0  0  0  0  0  0  0  0  0
    8.7264    4.5508   -7.6420 C   0  0  0  0  0  0  0  0  0  0  0  0
   11.2502    4.5637   -5.0848 C   0  0  0  0  0  0  0  0  0  0  0  0
   11.5380    3.4283   -3.7587 S   0  0  0  0  0  0  0  0  0  0  0  0
    0.7258   -0.3815   -0.8031 H   0  0  0  0  0  0  0  0  0  0  0  0
    1.1716   -0.6442   -2.5288 H   0  0  0  0  0  0  0  0  0  0  0  0
    0.4574    0.9110   -2.0283 H   0  0  0  0  0  0  0  0  0  0  0  0
    4.6294    1.3914   -1.0107 H   0  0  0  0  0  0  0  0  0  0  0  0
    3.9504    3.9319   -3.3258 H   0  0  0  0  0  0  0  0  0  0  0  0
    5.6341    4.2016   -3.7814 H   0  0  0  0  0  0  0  0  0  0  0  0
    7.1997    5.2890   -2.2908 H   0  0  0  0  0  0  0  0  0  0  0  0
    7.5949    6.6007   -0.2247 H   0  0  0  0  0  0  0  0  0  0  0  0
    5.8314    6.7270    1.5396 H   0  0  0  0  0  0  0  0  0  0  0  0
    3.6641    5.5347    1.2033 H   0  0  0  0  0  0  0  0  0  0  0  0
    3.2696    4.2267   -0.8676 H   0  0  0  0  0  0  0  0  0  0  0  0
    7.5202    2.9016   -3.9119 H   0  0  0  0  0  0  0  0  0  0  0  0
    9.1643    0.8560   -1.1574 H   0  0  0  0  0  0  0  0  0  0  0  0
   10.7137    1.1873   -2.0003 H   0  0  0  0  0  0  0  0  0  0  0  0
   11.0829    0.3006   -4.3230 H   0  0  0  0  0  0  0  0  0  0  0  0
   10.6649   -1.5983   -5.8533 H   0  0  0  0  0  0  0  0  0  0  0  0
    7.6796   -3.8052   -5.4456 H   0  0  0  0  0  0  0  0  0  0  0  0
    9.2343   -1.8691   -8.3770 H   0  0  0  0  0  0  0  0  0  0  0  0
    7.1330   -2.6531   -3.5238 H   0  0  0  0  0  0  0  0  0  0  0  0
    7.6052   -0.7537   -1.9815 H   0  0  0  0  0  0  0  0  0  0  0  0
    8.5221    6.9707   -5.1408 H   0  0  0  0  0  0  0  0  0  0  0  0
    7.3790    5.6540   -5.4878 H   0  0  0  0  0  0  0  0  0  0  0  0
    7.6699    6.9262   -6.7088 H   0  0  0  0  0  0  0  0  0  0  0  0
   10.7649    7.0831   -6.3887 H   0  0  0  0  0  0  0  0  0  0  0  0
    9.8749    7.0289   -7.9300 H   0  0  0  0  0  0  0  0  0  0  0  0
   11.1673    5.8483   -7.6072 H   0  0  0  0  0  0  0  0  0  0  0  0
    7.9832    3.8542   -7.2266 H   0  0  0  0  0  0  0  0  0  0  0  0
    9.5293    3.9522   -8.1028 H   0  0  0  0  0  0  0  0  0  0  0  0
    8.2451    5.1468   -8.4366 H   0  0  0  0  0  0  0  0  0  0  0  0
   12.0624    5.1747   -5.4643 H   0  0  0  0  0  0  0  0  0  0  0  0
  1  2  1  0
  1 41  1  0
  1 42  1  0
  1 43  1  0
  2  3  1  0
  3  4  2  0
  3  5  1  0
  5  6  1  0
  5 44  1  0
  6  7  1  6
  6  8  1  0
  6 15  1  0
  8  9  1  0
  8 45  1  0
  8 46  1  0
  9 10  2  0
  9 14  1  0
 10 11  1  0
 10 47  1  0
 11 12  2  0
 11 48  1  0
 12 13  1  0
 12 49  1  0
 13 14  2  0
 13 50  1  0
 14 51  1  0
 15 16  2  0
 15 17  1  0
 17 18  1  0
 17 52  1  0
 18 19  1  1
 18 20  1  0
 18 32  1  0
 20 21  1  0
 20 53  1  0
 20 54  1  0
 21 22  2  0
 21 31  1  0
 22 23  1  0
 22 55  1  0
 23 24  2  0
 23 56  1  0
 24 25  1  0
 24 30  1  0
 25 26  1  0
 25 57  1  0
 26 27  2  0
 26 28  2  0
 26 29  1  6
 29 58  1  0
 30 31  2  0
 30 59  1  0
 31 60  1  0
 32 33  2  0
 32 40  1  0
 33 34  1  0
 34 35  1  0
 34 39  2  0
 35 36  1  1
 35 37  1  0
 35 38  1  0
 36 61  1  0
 36 62  1  0
 36 63  1  0
 37 64  1  0
 37 65  1  0
 37 66  1  0
 38 67  1  0
 38 68  1  0
 38 69  1  0
 39 40  1  0
 39 70  1  0
M  END

