
     RDKit          3D

 39 40  0  0  0  0  0  0  0  0999 V2000
    3.1868    2.5645    2.3741 C   0  0  0  0  0  0  0  0  0  0  0  0
    3.9401    1.2487    2.5561 C   0  0  1  0  0  0  0  0  0  0  0  0
    3.0662    0.0518    2.9801 C   0  0  0  0  0  0  0  0  0  0  0  0
    3.9329   -1.1633    2.6400 C   0  0  0  0  0  0  0  0  0  0  0  0
    4.5208   -0.7998    1.2577 C   0  0  2  0  0  0  0  0  0  0  0  0
    5.8126   -1.5350    0.9059 C   0  0  0  0  0  0  0  0  0  0  0  0
    5.6229   -2.9550    0.8625 N   0  0  0  0  0  0  0  0  0  0  0  0
    6.6160   -3.9113    0.6873 C   0  0  0  0  0  0  0  0  0  0  0  0
    7.9455   -3.5772    0.4790 C   0  0  0  0  0  0  0  0  0  0  0  0
    8.9278   -4.6129    0.2734 C   0  0  0  0  0  0  0  0  0  0  0  0
    8.4928   -5.9305    0.1881 C   0  0  0  0  0  0  0  0  0  0  0  0
    7.1294   -6.2846    0.3340 C   0  0  0  0  0  0  0  0  0  0  0  0
    6.1617   -5.2847    0.6329 C   0  0  0  0  0  0  0  0  0  0  0  0
    4.6255   -5.8098    1.3362 S   0  0  1  0  0  0  0  0  0  0  0  0
    4.7919   -6.1553    3.1265 C   0  0  0  0  0  0  0  0  0  0  0  0
    3.6545   -4.6669    1.2607 O   0  0  0  0  0  0  0  0  0  0  0  0
    4.2618   -7.0989    0.7297 O   0  0  0  0  0  0  0  0  0  0  0  0
    4.6785    0.7478    1.2814 C   0  0  0  0  0  0  0  0  0  0  0  0
    2.6848    2.8712    3.3062 H   0  0  0  0  0  0  0  0  0  0  0  0
    2.4134    2.4733    1.5922 H   0  0  0  0  0  0  0  0  0  0  0  0
    3.8651    3.3816    2.0785 H   0  0  0  0  0  0  0  0  0  0  0  0
    4.6967    1.3937    3.3487 H   0  0  0  0  0  0  0  0  0  0  0  0
    2.1392    0.0308    2.3786 H   0  0  0  0  0  0  0  0  0  0  0  0
    2.7656    0.0941    4.0390 H   0  0  0  0  0  0  0  0  0  0  0  0
    3.3861   -2.1190    2.6349 H   0  0  0  0  0  0  0  0  0  0  0  0
    4.7501   -1.2549    3.3791 H   0  0  0  0  0  0  0  0  0  0  0  0
    3.7712   -1.0635    0.4914 H   0  0  0  0  0  0  0  0  0  0  0  0
    6.6110   -1.2984    1.6380 H   0  0  0  0  0  0  0  0  0  0  0  0
    6.2066   -1.1891   -0.0738 H   0  0  0  0  0  0  0  0  0  0  0  0
    4.6624   -3.3591    0.9381 H   0  0  0  0  0  0  0  0  0  0  0  0
    8.2397   -2.5295    0.3987 H   0  0  0  0  0  0  0  0  0  0  0  0
    9.9812   -4.3549    0.1623 H   0  0  0  0  0  0  0  0  0  0  0  0
    9.2188   -6.7280    0.0018 H   0  0  0  0  0  0  0  0  0  0  0  0
    6.8050   -7.3191    0.2179 H   0  0  0  0  0  0  0  0  0  0  0  0
    5.0437   -5.2245    3.6512 H   0  0  0  0  0  0  0  0  0  0  0  0
    5.5736   -6.9158    3.2553 H   0  0  0  0  0  0  0  0  0  0  0  0
    3.8164   -6.5422    3.4561 H   0  0  0  0  0  0  0  0  0  0  0  0
    4.2419    1.1943    0.3733 H   0  0  0  0  0  0  0  0  0  0  0  0
    5.7393    1.0494    1.2948 H   0  0  0  0  0  0  0  0  0  0  0  0
  1  2  1  0
  1 19  1  0
  1 20  1  0
  1 21  1  0
  2  3  1  0
  2 18  1  0
  2 22  1  1
  3  4  1  0
  3 23  1  0
  3 24  1  0
  4  5  1  0
  4 25  1  0
  4 26  1  0
  5  6  1  0
  5 18  1  0
  5 27  1  6
  6  7  1  0
  6 28  1  0
  6 29  1  0
  7  8  1  0
  7 30  1  0
  8  9  2  0
  8 13  1  0
  9 10  1  0
  9 31  1  0
 10 11  2  0
 10 32  1  0
 11 12  1  0
 11 33  1  0
 12 13  2  0
 12 34  1  0
 13 14  1  0
 14 15  1  1
 14 16  2  0
 14 17  2  0
 15 35  1  0
 15 36  1  0
 15 37  1  0
 18 38  1  0
 18 39  1  0
M  END

