
     RDKit          3D

 50 51  0  0  0  0  0  0  0  0999 V2000
    1.2399    0.3900   -0.0939 O   0  0  0  0  0  0  0  0  0  0  0  0
    1.4081   -0.9078   -0.3566 C   0  0  0  0  0  0  0  0  0  0  0  0
    0.5366   -1.3181   -1.3236 O   0  0  0  0  0  0  0  0  0  0  0  0
    2.8650   -1.3432   -0.4531 C   0  0  1  0  0  0  0  0  0  0  0  0
    3.7002   -0.8105    0.7290 C   0  0  0  0  0  0  0  0  0  0  0  0
    3.3782   -1.5327    2.0466 C   0  0  0  0  0  0  0  0  0  0  0  0
    3.5128   -3.0599    1.9432 C   0  0  2  0  0  0  0  0  0  0  0  0
    4.9284   -3.4233    1.7989 N   0  0  0  0  0  0  0  0  0  0  0  0
    5.3276   -4.7217    2.0770 C   0  0  0  0  0  0  0  0  0  0  0  0
    4.5110   -5.5989    2.3317 O   0  0  0  0  0  0  0  0  0  0  0  0
    6.6902   -4.9737    2.0222 N   0  0  0  0  0  0  0  0  0  0  0  0
    7.1762   -6.2509    2.5397 C   0  0  0  0  0  0  0  0  0  0  0  0
    8.1977   -6.8916    1.5977 C   0  0  0  0  0  0  0  0  0  0  0  0
    9.3613   -5.9398    1.2488 C   0  0  2  0  0  0  0  0  0  0  0  0
   10.3549   -5.7027    2.4053 C   0  0  0  0  0  0  0  0  0  0  0  0
   11.1771   -6.9312    2.8061 C   0  0  0  0  0  0  0  0  0  0  0  0
   12.1996   -6.6446    3.9060 C   0  0  0  0  0  0  0  0  0  0  0  0
   13.0056   -7.7607    4.2180 O   0  0  0  0  0  0  0  0  0  0  0  0
    8.7585   -4.6267    0.7137 C   0  0  0  0  0  0  0  0  0  0  0  0
    7.7138   -4.0055    1.6536 C   0  0  0  0  0  0  0  0  0  0  0  0
    2.6725   -3.5909    0.7660 C   0  0  0  0  0  0  0  0  0  0  0  0
    2.9998   -2.8762   -0.5497 C   0  0  0  0  0  0  0  0  0  0  0  0
    0.6449   -2.2738   -1.4250 H   0  0  0  0  0  0  0  0  0  0  0  0
    3.2564   -0.8862   -1.3905 H   0  0  0  0  0  0  0  0  0  0  0  0
    3.5445    0.2742    0.8433 H   0  0  0  0  0  0  0  0  0  0  0  0
    4.7655   -0.9417    0.4738 H   0  0  0  0  0  0  0  0  0  0  0  0
    2.3413   -1.3038    2.3402 H   0  0  0  0  0  0  0  0  0  0  0  0
    4.0212   -1.1507    2.8594 H   0  0  0  0  0  0  0  0  0  0  0  0
    3.1275   -3.5251    2.8663 H   0  0  0  0  0  0  0  0  0  0  0  0
    5.5927   -2.6834    1.9886 H   0  0  0  0  0  0  0  0  0  0  0  0
    6.3018   -6.8987    2.6729 H   0  0  0  0  0  0  0  0  0  0  0  0
    7.6261   -6.0963    3.5413 H   0  0  0  0  0  0  0  0  0  0  0  0
    7.6825   -7.1778    0.6650 H   0  0  0  0  0  0  0  0  0  0  0  0
    8.5698   -7.8260    2.0482 H   0  0  0  0  0  0  0  0  0  0  0  0
    9.9379   -6.3969    0.4249 H   0  0  0  0  0  0  0  0  0  0  0  0
    9.8292   -5.3119    3.2949 H   0  0  0  0  0  0  0  0  0  0  0  0
   11.0508   -4.9007    2.0986 H   0  0  0  0  0  0  0  0  0  0  0  0
   11.7163   -7.3313    1.9295 H   0  0  0  0  0  0  0  0  0  0  0  0
   10.5089   -7.7413    3.1528 H   0  0  0  0  0  0  0  0  0  0  0  0
   11.6806   -6.2499    4.8054 H   0  0  0  0  0  0  0  0  0  0  0  0
   12.8919   -5.8524    3.5740 H   0  0  0  0  0  0  0  0  0  0  0  0
   12.4311   -8.4621    4.5522 H   0  0  0  0  0  0  0  0  0  0  0  0
    8.2671   -4.8306   -0.2530 H   0  0  0  0  0  0  0  0  0  0  0  0
    9.5522   -3.8853    0.5205 H   0  0  0  0  0  0  0  0  0  0  0  0
    7.2469   -3.1607    1.1304 H   0  0  0  0  0  0  0  0  0  0  0  0
    8.2093   -3.5965    2.5583 H   0  0  0  0  0  0  0  0  0  0  0  0
    1.6090   -3.4419    1.0195 H   0  0  0  0  0  0  0  0  0  0  0  0
    2.8342   -4.6746    0.6762 H   0  0  0  0  0  0  0  0  0  0  0  0
    2.3824   -3.2764   -1.3751 H   0  0  0  0  0  0  0  0  0  0  0  0
    4.0411   -3.0988   -0.8382 H   0  0  0  0  0  0  0  0  0  0  0  0
  1  2  2  0
  2  3  1  0
  2  4  1  0
  3 23  1  0
  4  5  1  0
  4 22  1  0
  4 24  1  6
  5  6  1  0
  5 25  1  0
  5 26  1  0
  6  7  1  0
  6 27  1  0
  6 28  1  0
  7  8  1  0
  7 21  1  0
  7 29  1  1
  8  9  1  0
  8 30  1  0
  9 10  2  0
  9 11  1  0
 11 12  1  0
 11 20  1  0
 12 13  1  0
 12 31  1  0
 12 32  1  0
 13 14  1  0
 13 33  1  0
 13 34  1  0
 14 15  1  0
 14 19  1  0
 14 35  1  6
 15 16  1  0
 15 36  1  0
 15 37  1  0
 16 17  1  0
 16 38  1  0
 16 39  1  0
 17 18  1  0
 17 40  1  0
 17 41  1  0
 18 42  1  0
 19 20  1  0
 19 43  1  0
 19 44  1  0
 20 45  1  0
 20 46  1  0
 21 22  1  0
 21 47  1  0
 21 48  1  0
 22 49  1  0
 22 50  1  0
M  END

