
     RDKit          3D

 35 36  0  0  0  0  0  0  0  0999 V2000
    2.8784    2.4366    2.0398 N   0  0  0  0  0  0  0  0  0  0  0  0
    3.6152    1.2115    2.2581 C   0  0  1  0  0  0  0  0  0  0  0  0
    3.0351    0.1757    3.2446 C   0  0  0  0  0  0  0  0  0  0  0  0
    3.7419   -1.0533    2.8845 N   0  0  0  0  0  0  0  0  0  0  0  0
    4.0481   -1.0678    1.4659 C   0  0  2  0  0  0  0  0  0  0  0  0
    5.6068   -1.4428    1.3147 C   0  0  1  0  0  0  0  0  0  0  0  0
    6.3176   -0.8845    2.3496 O   0  0  0  0  0  0  0  0  0  0  0  0
    5.7685   -2.8667    1.3078 N   0  0  0  0  0  0  0  0  0  0  0  0
    5.3864   -3.7839    0.2419 C   0  0  0  0  0  0  0  0  0  0  0  0
    4.8561   -5.0961    0.7730 C   0  0  0  0  0  0  0  0  0  0  0  0
    5.0265   -6.2991   -0.0191 C   0  0  0  0  0  0  0  0  0  0  0  0
    4.1072   -7.3282    0.0269 C   0  0  0  0  0  0  0  0  0  0  0  0
    2.9326   -7.2597    0.8216 C   0  0  0  0  0  0  0  0  0  0  0  0
    2.7542   -6.0902    1.6221 C   0  0  0  0  0  0  0  0  0  0  0  0
    1.4305   -6.0192    2.7889 Cl  0  0  0  0  0  0  0  0  0  0  0  0
    3.6641   -5.0701    1.5645 C   0  0  0  0  0  0  0  0  0  0  0  0
    3.5098   -3.9623    2.3913 F   0  0  0  0  0  0  0  0  0  0  0  0
    3.7573    0.3666    0.9774 C   0  0  0  0  0  0  0  0  0  0  0  0
    2.8914    3.0330    2.8659 H   0  0  0  0  0  0  0  0  0  0  0  0
    1.8999    2.2486    1.8178 H   0  0  0  0  0  0  0  0  0  0  0  0
    4.6252    1.4873    2.6069 H   0  0  0  0  0  0  0  0  0  0  0  0
    1.9402    0.0941    3.0878 H   0  0  0  0  0  0  0  0  0  0  0  0
    3.2053    0.4395    4.3008 H   0  0  0  0  0  0  0  0  0  0  0  0
    3.3384   -1.9242    3.2245 H   0  0  0  0  0  0  0  0  0  0  0  0
    3.4742   -1.8182    0.9071 H   0  0  0  0  0  0  0  0  0  0  0  0
    5.9425   -1.0622    0.3342 H   0  0  0  0  0  0  0  0  0  0  0  0
    5.6442   -0.8071    3.0681 H   0  0  0  0  0  0  0  0  0  0  0  0
    6.0065   -3.2961    2.2031 H   0  0  0  0  0  0  0  0  0  0  0  0
    6.3088   -3.9628   -0.3423 H   0  0  0  0  0  0  0  0  0  0  0  0
    4.7169   -3.2114   -0.4396 H   0  0  0  0  0  0  0  0  0  0  0  0
    5.9215   -6.4039   -0.6417 H   0  0  0  0  0  0  0  0  0  0  0  0
    4.2931   -8.2337   -0.5594 H   0  0  0  0  0  0  0  0  0  0  0  0
    2.1667   -8.0327    0.8038 H   0  0  0  0  0  0  0  0  0  0  0  0
    2.7954    0.3711    0.4385 H   0  0  0  0  0  0  0  0  0  0  0  0
    4.5143    0.7687    0.2901 H   0  0  0  0  0  0  0  0  0  0  0  0
  1  2  1  0
  1 19  1  0
  1 20  1  0
  2  3  1  0
  2 18  1  0
  2 21  1  1
  3  4  1  0
  3 22  1  0
  3 23  1  0
  4  5  1  0
  4 24  1  0
  5  6  1  0
  5 18  1  0
  5 25  1  1
  6  7  1  0
  6  8  1  0
  6 26  1  6
  7 27  1  0
  8  9  1  0
  8 28  1  0
  9 10  1  0
  9 29  1  0
  9 30  1  0
 10 11  2  0
 10 16  1  0
 11 12  1  0
 11 31  1  0
 12 13  2  0
 12 32  1  0
 13 14  1  0
 13 33  1  0
 14 15  1  0
 14 16  2  0
 16 17  1  0
 18 34  1  0
 18 35  1  0
M  END

