
     RDKit          3D

 55 58  0  0  0  0  0  0  0  0999 V2000
    5.8295    0.6472    1.5583 C   0  0  0  0  0  0  0  0  0  0  0  0
    6.8824    0.4054    0.6326 O   0  0  0  0  0  0  0  0  0  0  0  0
    6.6322   -0.2070   -0.5432 C   0  0  0  0  0  0  0  0  0  0  0  0
    7.3231    0.1387   -1.6535 C   0  0  0  0  0  0  0  0  0  0  0  0
    7.1021   -0.5189   -2.9278 C   0  0  0  0  0  0  0  0  0  0  0  0
    6.2699   -1.5801   -3.0948 C   0  0  0  0  0  0  0  0  0  0  0  0
    6.0858   -2.2707   -4.3860 C   0  0  0  0  0  0  0  0  0  0  0  0
    5.7199   -3.6310   -4.4628 C   0  0  0  0  0  0  0  0  0  0  0  0
    5.5947   -4.2804   -5.6887 C   0  0  0  0  0  0  0  0  0  0  0  0
    5.8114   -3.6081   -6.9052 C   0  0  0  0  0  0  0  0  0  0  0  0
    5.6683   -4.3017   -8.2102 C   0  0  0  0  0  0  0  0  0  0  0  0
    5.1980   -3.6321   -9.3551 C   0  0  0  0  0  0  0  0  0  0  0  0
    5.0606   -4.2913  -10.5786 C   0  0  0  0  0  0  0  0  0  0  0  0
    5.3886   -5.6492  -10.7265 C   0  0  0  0  0  0  0  0  0  0  0  0
    5.2737   -6.4332  -12.0244 C   0  0  1  0  0  0  0  0  0  0  0  0
    3.9986   -7.3129  -12.0752 C   0  0  0  0  0  0  0  0  0  0  0  0
    2.7519   -6.4617  -12.3409 C   0  0  0  0  0  0  0  0  0  0  0  0
    2.9186   -5.5607  -13.5777 C   0  0  2  0  0  0  0  0  0  0  0  0
    2.7991   -6.3015  -14.9134 C   0  0  0  0  0  0  0  0  0  0  0  0
    4.1337   -4.8090  -13.4909 O   0  0  0  0  0  0  0  0  0  0  0  0
    5.3143   -5.5662  -13.2917 C   0  0  0  0  0  0  0  0  0  0  0  0
    5.8498   -6.2952   -9.5710 C   0  0  0  0  0  0  0  0  0  0  0  0
    6.1836   -7.6008   -9.6561 F   0  0  0  0  0  0  0  0  0  0  0  0
    5.9968   -5.6634   -8.3436 C   0  0  0  0  0  0  0  0  0  0  0  0
    6.1568   -2.2444   -6.8316 C   0  0  0  0  0  0  0  0  0  0  0  0
    6.2859   -1.5947   -5.6085 C   0  0  0  0  0  0  0  0  0  0  0  0
    5.6480   -2.1752   -1.8475 C   0  0  2  0  0  0  0  0  0  0  0  0
    4.3687   -2.6623   -2.0933 F   0  0  0  0  0  0  0  0  0  0  0  0
    5.5357   -1.2425   -0.6412 C   0  0  1  0  0  0  0  0  0  0  0  0
    5.5160   -2.0427    0.5001 F   0  0  0  0  0  0  0  0  0  0  0  0
    6.2824    1.1890    2.3991 H   0  0  0  0  0  0  0  0  0  0  0  0
    5.3817   -0.2875    1.9252 H   0  0  0  0  0  0  0  0  0  0  0  0
    5.0446    1.2834    1.1112 H   0  0  0  0  0  0  0  0  0  0  0  0
    8.0495    0.9506   -1.5831 H   0  0  0  0  0  0  0  0  0  0  0  0
    7.6726   -0.1453   -3.7808 H   0  0  0  0  0  0  0  0  0  0  0  0
    5.5168   -4.1955   -3.5527 H   0  0  0  0  0  0  0  0  0  0  0  0
    5.2923   -5.3300   -5.6985 H   0  0  0  0  0  0  0  0  0  0  0  0
    4.9040   -2.5830   -9.2847 H   0  0  0  0  0  0  0  0  0  0  0  0
    4.6721   -3.7507  -11.4431 H   0  0  0  0  0  0  0  0  0  0  0  0
    6.1439   -7.1092  -12.0646 H   0  0  0  0  0  0  0  0  0  0  0  0
    3.8913   -7.8789  -11.1372 H   0  0  0  0  0  0  0  0  0  0  0  0
    4.1253   -8.0630  -12.8755 H   0  0  0  0  0  0  0  0  0  0  0  0
    2.5578   -5.8189  -11.4664 H   0  0  0  0  0  0  0  0  0  0  0  0
    1.8633   -7.1029  -12.4652 H   0  0  0  0  0  0  0  0  0  0  0  0
    2.1323   -4.7886  -13.5553 H   0  0  0  0  0  0  0  0  0  0  0  0
    3.5045   -7.1420  -15.0046 H   0  0  0  0  0  0  0  0  0  0  0  0
    2.9887   -5.6061  -15.7454 H   0  0  0  0  0  0  0  0  0  0  0  0
    1.7828   -6.7100  -15.0305 H   0  0  0  0  0  0  0  0  0  0  0  0
    6.1368   -4.8363  -13.2452 H   0  0  0  0  0  0  0  0  0  0  0  0
    5.5093   -6.2240  -14.1615 H   0  0  0  0  0  0  0  0  0  0  0  0
    6.3939   -6.2420   -7.5081 H   0  0  0  0  0  0  0  0  0  0  0  0
    6.3414   -1.6837   -7.7506 H   0  0  0  0  0  0  0  0  0  0  0  0
    6.5357   -0.5315   -5.6029 H   0  0  0  0  0  0  0  0  0  0  0  0
    6.2581   -3.0395   -1.5173 H   0  0  0  0  0  0  0  0  0  0  0  0
    4.5496   -0.7419   -0.6964 H   0  0  0  0  0  0  0  0  0  0  0  0
  1  2  1  0
  1 31  1  0
  1 32  1  0
  1 33  1  0
  2  3  1  0
  3  4  2  0
  3 29  1  0
  4  5  1  0
  4 34  1  0
  5  6  2  0
  5 35  1  0
  6  7  1  0
  6 27  1  0
  7  8  2  0
  7 26  1  0
  8  9  1  0
  8 36  1  0
  9 10  2  0
  9 37  1  0
 10 11  1  0
 10 25  1  0
 11 12  2  0
 11 24  1  0
 12 13  1  0
 12 38  1  0
 13 14  2  0
 13 39  1  0
 14 15  1  0
 14 22  1  0
 15 16  1  0
 15 21  1  0
 15 40  1  6
 16 17  1  0
 16 41  1  0
 16 42  1  0
 17 18  1  0
 17 43  1  0
 17 44  1  0
 18 19  1  0
 18 20  1  0
 18 45  1  6
 19 46  1  0
 19 47  1  0
 19 48  1  0
 20 21  1  0
 21 49  1  0
 21 50  1  0
 22 23  1  0
 22 24  2  0
 24 51  1  0
 25 26  2  0
 25 52  1  0
 26 53  1  0
 27 28  1  0
 27 29  1  0
 27 54  1  1
 29 30  1  0
 29 55  1  6
M  END

