
     RDKit          3D

 55 57  0  0  0  0  0  0  0  0999 V2000
    4.4166   -1.3889   -1.6025 C   0  0  0  0  0  0  0  0  0  0  0  0
    5.0018   -0.3461   -0.6372 C   0  0  0  0  0  0  0  0  0  0  0  0
    4.8007   -0.6989    0.8210 C   0  0  0  0  0  0  0  0  0  0  0  0
    5.7096   -1.5294    1.4995 C   0  0  0  0  0  0  0  0  0  0  0  0
    5.5057   -1.8876    2.8308 C   0  0  0  0  0  0  0  0  0  0  0  0
    4.3849   -1.4296    3.5465 C   0  0  0  0  0  0  0  0  0  0  0  0
    4.2204   -1.8291    5.0124 C   0  0  1  0  0  0  0  0  0  0  0  0
    2.9348   -1.3310    5.6836 C   0  0  0  0  0  0  0  0  0  0  0  0
    4.3811   -3.2743    5.1430 N   0  0  0  0  0  0  0  0  0  0  0  0
    4.8629   -3.8277    6.3207 C   0  0  0  0  0  0  0  0  0  0  0  0
    5.3136   -3.1401    7.2274 O   0  0  0  0  0  0  0  0  0  0  0  0
    4.8033   -5.1984    6.3663 N   0  0  0  0  0  0  0  0  0  0  0  0
    5.2745   -5.9699    7.4982 C   0  0  0  0  0  0  0  0  0  0  0  0
    4.3556   -7.1018    7.9080 C   0  0  0  0  0  0  0  0  0  0  0  0
    4.9029   -8.1603    8.7009 C   0  0  0  0  0  0  0  0  0  0  0  0
    3.9917   -9.1988    9.0890 C   0  0  0  0  0  0  0  0  0  0  0  0
    2.6968   -9.0881    8.6629 C   0  0  0  0  0  0  0  0  0  0  0  0
    1.7235  -10.1487    9.0146 N   0  0  0  0  0  0  0  0  0  0  0  0
    1.8383  -11.3681    8.6249 N   0  0  0  0  0  0  0  0  0  0  0  0
    0.6817  -12.0518    9.0678 C   0  0  0  0  0  0  0  0  0  0  0  0
    0.5560  -13.4976    8.7780 C   0  0  0  0  0  0  0  0  0  0  0  0
   -0.1521  -11.1682    9.7227 C   0  0  0  0  0  0  0  0  0  0  0  0
    0.5167   -9.9303    9.7003 C   0  0  0  0  0  0  0  0  0  0  0  0
    0.1548   -8.6095   10.2272 C   0  0  0  0  0  0  0  0  0  0  0  0
    2.1188   -8.1055    7.9406 N   0  0  0  0  0  0  0  0  0  0  0  0
    3.0161   -7.1170    7.5677 C   0  0  0  0  0  0  0  0  0  0  0  0
    3.4786   -0.6012    2.8715 C   0  0  0  0  0  0  0  0  0  0  0  0
    3.6844   -0.2440    1.5338 C   0  0  0  0  0  0  0  0  0  0  0  0
    4.5841   -1.0974   -2.6523 H   0  0  0  0  0  0  0  0  0  0  0  0
    3.3313   -1.5048   -1.4510 H   0  0  0  0  0  0  0  0  0  0  0  0
    4.8787   -2.3772   -1.4474 H   0  0  0  0  0  0  0  0  0  0  0  0
    4.5425    0.6358   -0.8418 H   0  0  0  0  0  0  0  0  0  0  0  0
    6.0804   -0.2313   -0.8396 H   0  0  0  0  0  0  0  0  0  0  0  0
    6.5973   -1.8964    0.9747 H   0  0  0  0  0  0  0  0  0  0  0  0
    6.2249   -2.5378    3.3351 H   0  0  0  0  0  0  0  0  0  0  0  0
    5.0647   -1.4030    5.5789 H   0  0  0  0  0  0  0  0  0  0  0  0
    2.0347   -1.7408    5.1957 H   0  0  0  0  0  0  0  0  0  0  0  0
    2.8663   -0.2320    5.6654 H   0  0  0  0  0  0  0  0  0  0  0  0
    2.9386   -1.6495    6.7359 H   0  0  0  0  0  0  0  0  0  0  0  0
    3.8047   -3.8492    4.5377 H   0  0  0  0  0  0  0  0  0  0  0  0
    4.5026   -5.7140    5.5481 H   0  0  0  0  0  0  0  0  0  0  0  0
    5.4116   -5.2552    8.3255 H   0  0  0  0  0  0  0  0  0  0  0  0
    6.2792   -6.3918    7.2948 H   0  0  0  0  0  0  0  0  0  0  0  0
    5.9603   -8.2019    8.9566 H   0  0  0  0  0  0  0  0  0  0  0  0
    4.3221  -10.0560    9.6775 H   0  0  0  0  0  0  0  0  0  0  0  0
    0.6098  -13.6715    7.6898 H   0  0  0  0  0  0  0  0  0  0  0  0
   -0.3849  -13.9075    9.1655 H   0  0  0  0  0  0  0  0  0  0  0  0
    1.4032  -14.0494    9.2196 H   0  0  0  0  0  0  0  0  0  0  0  0
   -1.1211  -11.3679   10.1717 H   0  0  0  0  0  0  0  0  0  0  0  0
   -0.8334   -8.6179   10.7022 H   0  0  0  0  0  0  0  0  0  0  0  0
    0.2185   -7.8888    9.3927 H   0  0  0  0  0  0  0  0  0  0  0  0
    0.9214   -8.2738   10.9473 H   0  0  0  0  0  0  0  0  0  0  0  0
    2.5937   -6.2998    6.9774 H   0  0  0  0  0  0  0  0  0  0  0  0
    2.5965   -0.2172    3.3863 H   0  0  0  0  0  0  0  0  0  0  0  0
    2.9583    0.4075    1.0377 H   0  0  0  0  0  0  0  0  0  0  0  0
  1  2  1  0
  1 29  1  0
  1 30  1  0
  1 31  1  0
  2  3  1  0
  2 32  1  0
  2 33  1  0
  3  4  2  0
  3 28  1  0
  4  5  1  0
  4 34  1  0
  5  6  2  0
  5 35  1  0
  6  7  1  0
  6 27  1  0
  7  8  1  0
  7  9  1  0
  7 36  1  1
  8 37  1  0
  8 38  1  0
  8 39  1  0
  9 10  1  0
  9 40  1  0
 10 11  2  0
 10 12  1  0
 12 13  1  0
 12 41  1  0
 13 14  1  0
 13 42  1  0
 13 43  1  0
 14 15  2  0
 14 26  1  0
 15 16  1  0
 15 44  1  0
 16 17  2  0
 16 45  1  0
 17 18  1  0
 17 25  1  0
 18 19  1  0
 18 23  1  0
 19 20  2  0
 20 21  1  0
 20 22  1  0
 21 46  1  0
 21 47  1  0
 21 48  1  0
 22 23  2  0
 22 49  1  0
 23 24  1  0
 24 50  1  0
 24 51  1  0
 24 52  1  0
 25 26  2  0
 26 53  1  0
 27 28  2  0
 27 54  1  0
 28 55  1  0
M  END

