
     RDKit          3D

 38 38  0  0  0  0  0  0  0  0999 V2000
    7.9009   -8.5196    6.7823 C   0  0  0  0  0  0  0  0  0  0  0  0
    6.9403   -7.3468    6.6993 C   0  0  0  0  0  0  0  0  0  0  0  0
    7.3030   -6.5332    5.6127 O   0  0  0  0  0  0  0  0  0  0  0  0
    6.4784   -5.4093    5.4392 C   0  0  0  0  0  0  0  0  0  0  0  0
    6.9196   -4.5886    4.2394 C   0  0  0  0  0  0  0  0  0  0  0  0
    6.7474   -5.3164    2.9886 N   0  0  0  0  0  0  0  0  0  0  0  0
    7.0784   -4.4271    1.5395 S   0  0  1  0  0  0  0  0  0  0  0  0
    6.4168   -5.2786    0.5298 O   0  0  0  0  0  0  0  0  0  0  0  0
    6.6407   -3.0314    1.7441 O   0  0  0  0  0  0  0  0  0  0  0  0
    8.7829   -4.4470    1.3247 C   0  0  0  0  0  0  0  0  0  0  0  0
    9.6235   -3.3195    1.6559 C   0  0  0  0  0  0  0  0  0  0  0  0
   10.9915   -3.4270    1.5213 C   0  0  0  0  0  0  0  0  0  0  0  0
   11.6464   -4.6053    1.0642 C   0  0  0  0  0  0  0  0  0  0  0  0
   13.1440   -4.6743    0.9557 C   0  0  0  0  0  0  0  0  0  0  0  0
   10.7776   -5.7160    0.7174 C   0  0  0  0  0  0  0  0  0  0  0  0
   11.3587   -6.9823    0.1432 C   0  0  0  0  0  0  0  0  0  0  0  0
   11.5341   -6.9681   -1.2930 N   0  0  0  0  0  0  0  0  0  0  0  0
    9.4090   -5.6416    0.8663 C   0  0  0  0  0  0  0  0  0  0  0  0
    7.6404   -9.1778    7.6262 H   0  0  0  0  0  0  0  0  0  0  0  0
    8.9332   -8.1628    6.9217 H   0  0  0  0  0  0  0  0  0  0  0  0
    7.8673   -9.1099    5.8533 H   0  0  0  0  0  0  0  0  0  0  0  0
    6.9603   -6.7641    7.6466 H   0  0  0  0  0  0  0  0  0  0  0  0
    5.8965   -7.7110    6.5804 H   0  0  0  0  0  0  0  0  0  0  0  0
    6.5065   -4.7603    6.3411 H   0  0  0  0  0  0  0  0  0  0  0  0
    5.4174   -5.7211    5.3116 H   0  0  0  0  0  0  0  0  0  0  0  0
    7.9880   -4.3404    4.3544 H   0  0  0  0  0  0  0  0  0  0  0  0
    6.3611   -3.6323    4.2509 H   0  0  0  0  0  0  0  0  0  0  0  0
    5.7991   -5.6795    2.8681 H   0  0  0  0  0  0  0  0  0  0  0  0
    9.1579   -2.3926    1.9913 H   0  0  0  0  0  0  0  0  0  0  0  0
   11.6106   -2.5600    1.7756 H   0  0  0  0  0  0  0  0  0  0  0  0
   13.5971   -3.7654    1.3808 H   0  0  0  0  0  0  0  0  0  0  0  0
   13.5385   -4.7402   -0.0830 H   0  0  0  0  0  0  0  0  0  0  0  0
   13.5960   -5.5231    1.5094 H   0  0  0  0  0  0  0  0  0  0  0  0
   10.7201   -7.8736    0.3157 H   0  0  0  0  0  0  0  0  0  0  0  0
   12.3420   -7.2825    0.5491 H   0  0  0  0  0  0  0  0  0  0  0  0
   11.1774   -6.1849   -1.8425 H   0  0  0  0  0  0  0  0  0  0  0  0
   11.9731   -7.7390   -1.7986 H   0  0  0  0  0  0  0  0  0  0  0  0
    8.7663   -6.4895    0.6150 H   0  0  0  0  0  0  0  0  0  0  0  0
  1  2  1  0
  1 19  1  0
  1 20  1  0
  1 21  1  0
  2  3  1  0
  2 22  1  0
  2 23  1  0
  3  4  1  0
  4  5  1  0
  4 24  1  0
  4 25  1  0
  5  6  1  0
  5 26  1  0
  5 27  1  0
  7  6  1  1
  6 28  1  0
  7  8  2  0
  7  9  2  0
  7 10  1  0
 10 11  2  0
 10 18  1  0
 11 12  1  0
 11 29  1  0
 12 13  2  0
 12 30  1  0
 13 14  1  0
 13 15  1  0
 14 31  1  0
 14 32  1  0
 14 33  1  0
 15 16  1  0
 15 18  2  0
 16 17  1  0
 16 34  1  0
 16 35  1  0
 17 36  1  0
 17 37  1  0
 18 38  1  0
M  END

