
     RDKit          3D

 36 38  0  0  0  0  0  0  0  0999 V2000
    0.8454    0.3981    0.2654 C   0  0  0  0  0  0  0  0  0  0  0  0
    2.3464    0.2922    0.1323 C   0  0  0  0  0  0  0  0  0  0  0  0
    3.1412    1.4719    0.1692 C   0  0  0  0  0  0  0  0  0  0  0  0
    4.5260    1.4729    0.0473 C   0  0  0  0  0  0  0  0  0  0  0  0
    5.1281    0.2163   -0.1088 C   0  0  0  0  0  0  0  0  0  0  0  0
    4.3649   -0.9689   -0.1507 C   0  0  0  0  0  0  0  0  0  0  0  0
    5.2321   -2.0308   -0.3059 N   0  0  0  0  0  0  0  0  0  0  0  0
    6.4340   -1.5791   -0.3569 N   0  0  0  0  0  0  0  0  0  0  0  0
    6.4212   -0.2250   -0.2449 N   0  0  0  0  0  0  0  0  0  0  0  0
    7.6458    0.5892   -0.1911 C   0  0  1  0  0  0  0  0  0  0  0  0
    8.9142   -0.2435   -0.4122 C   0  0  0  0  0  0  0  0  0  0  0  0
    9.1214   -0.6134   -1.8868 C   0  0  0  0  0  0  0  0  0  0  0  0
    8.9631    0.6271   -2.7751 C   0  0  0  0  0  0  0  0  0  0  0  0
    7.6447    1.3289   -2.4671 C   0  0  0  0  0  0  0  0  0  0  0  0
    7.5430    1.6704   -1.0831 O   0  0  0  0  0  0  0  0  0  0  0  0
    2.9576   -0.9585   -0.0401 C   0  0  0  0  0  0  0  0  0  0  0  0
    2.1882   -2.2611   -0.0715 C   0  0  0  0  0  0  0  0  0  0  0  0
    1.6416   -2.5850    1.2517 N   0  0  0  0  0  0  0  0  0  0  0  0
    0.5376    1.4140    0.5530 H   0  0  0  0  0  0  0  0  0  0  0  0
    0.4768   -0.3183    1.0146 H   0  0  0  0  0  0  0  0  0  0  0  0
    0.3413    0.1567   -0.6874 H   0  0  0  0  0  0  0  0  0  0  0  0
    2.6278    2.4292    0.2968 H   0  0  0  0  0  0  0  0  0  0  0  0
    5.1077    2.3948    0.0580 H   0  0  0  0  0  0  0  0  0  0  0  0
    7.6712    1.0567    0.8067 H   0  0  0  0  0  0  0  0  0  0  0  0
    8.8871   -1.1386    0.2245 H   0  0  0  0  0  0  0  0  0  0  0  0
    9.7507    0.3874   -0.0682 H   0  0  0  0  0  0  0  0  0  0  0  0
    8.3834   -1.3793   -2.1754 H   0  0  0  0  0  0  0  0  0  0  0  0
   10.1176   -1.0653   -2.0202 H   0  0  0  0  0  0  0  0  0  0  0  0
    8.9952    0.3567   -3.8438 H   0  0  0  0  0  0  0  0  0  0  0  0
    9.7935    1.3321   -2.5936 H   0  0  0  0  0  0  0  0  0  0  0  0
    6.7906    0.6888   -2.7611 H   0  0  0  0  0  0  0  0  0  0  0  0
    7.5514    2.2808   -3.0097 H   0  0  0  0  0  0  0  0  0  0  0  0
    2.8530   -3.0414   -0.4865 H   0  0  0  0  0  0  0  0  0  0  0  0
    1.3381   -2.1622   -0.7681 H   0  0  0  0  0  0  0  0  0  0  0  0
    2.4067   -2.7616    1.9042 H   0  0  0  0  0  0  0  0  0  0  0  0
    1.1043   -3.4515    1.2018 H   0  0  0  0  0  0  0  0  0  0  0  0
  1  2  1  0
  1 19  1  0
  1 20  1  0
  1 21  1  0
  2  3  2  0
  2 16  1  0
  3  4  1  0
  3 22  1  0
  4  5  2  0
  4 23  1  0
  5  6  1  0
  5  9  1  0
  6  7  1  0
  6 16  2  0
  7  8  2  0
  8  9  1  0
  9 10  1  0
 10 11  1  0
 10 15  1  0
 10 24  1  1
 11 12  1  0
 11 25  1  0
 11 26  1  0
 12 13  1  0
 12 27  1  0
 12 28  1  0
 13 14  1  0
 13 29  1  0
 13 30  1  0
 14 15  1  0
 14 31  1  0
 14 32  1  0
 16 17  1  0
 17 18  1  0
 17 33  1  0
 17 34  1  0
 18 35  1  0
 18 36  1  0
M  END

