
     RDKit          3D

 43 43  0  0  0  0  0  0  0  0999 V2000
    1.1034    0.9105    0.0239 C   0  0  0  0  0  0  0  0  0  0  0  0
    2.5070    1.1958   -0.4727 C   0  0  0  0  0  0  0  0  0  0  0  0
    3.0306   -0.0036   -1.0429 O   0  0  0  0  0  0  0  0  0  0  0  0
    4.2879   -0.0420   -1.5585 C   0  0  0  0  0  0  0  0  0  0  0  0
    5.1168    1.0937   -1.5735 C   0  0  0  0  0  0  0  0  0  0  0  0
    6.4029    1.0287   -2.1064 C   0  0  0  0  0  0  0  0  0  0  0  0
    6.8639   -0.1802   -2.6243 C   0  0  0  0  0  0  0  0  0  0  0  0
    8.5112   -0.2679   -3.3218 S   0  0  1  0  0  0  0  0  0  0  0  0
    9.4259   -0.9948   -2.0992 N   0  0  0  0  0  0  0  0  0  0  0  0
    8.4803   -1.2157   -4.4367 O   0  0  0  0  0  0  0  0  0  0  0  0
    8.9927    1.1091   -3.4713 O   0  0  0  0  0  0  0  0  0  0  0  0
    6.0493   -1.3105   -2.6250 C   0  0  0  0  0  0  0  0  0  0  0  0
    4.7554   -1.2732   -2.0941 C   0  0  0  0  0  0  0  0  0  0  0  0
    4.0073   -2.5979   -2.1641 C   0  0  0  0  0  0  0  0  0  0  0  0
    4.5847   -3.5953   -2.5777 O   0  0  0  0  0  0  0  0  0  0  0  0
    2.7063   -2.6078   -1.7671 N   0  0  0  0  0  0  0  0  0  0  0  0
    1.8782   -3.8091   -1.7762 C   0  0  1  0  0  0  0  0  0  0  0  0
    1.3626   -4.1344   -0.3622 C   0  0  0  0  0  0  0  0  0  0  0  0
    2.4626   -4.3621    0.6742 C   0  0  0  0  0  0  0  0  0  0  0  0
    0.7238   -3.6855   -2.7884 C   0  0  0  0  0  0  0  0  0  0  0  0
    1.1711   -3.4588   -4.2320 C   0  0  0  0  0  0  0  0  0  0  0  0
    0.6750    1.8179    0.4763 H   0  0  0  0  0  0  0  0  0  0  0  0
    1.1099    0.1159    0.7857 H   0  0  0  0  0  0  0  0  0  0  0  0
    0.4482    0.5977   -0.8037 H   0  0  0  0  0  0  0  0  0  0  0  0
    3.1589    1.5242    0.3562 H   0  0  0  0  0  0  0  0  0  0  0  0
    2.5003    1.9954   -1.2349 H   0  0  0  0  0  0  0  0  0  0  0  0
    4.7616    2.0421   -1.1735 H   0  0  0  0  0  0  0  0  0  0  0  0
    7.0437    1.9116   -2.1324 H   0  0  0  0  0  0  0  0  0  0  0  0
    9.8633   -1.8431   -2.4591 H   0  0  0  0  0  0  0  0  0  0  0  0
   10.1133   -0.3349   -1.7361 H   0  0  0  0  0  0  0  0  0  0  0  0
    6.3889   -2.2590   -3.0438 H   0  0  0  0  0  0  0  0  0  0  0  0
    2.3117   -1.7376   -1.4259 H   0  0  0  0  0  0  0  0  0  0  0  0
    2.5484   -4.6183   -2.1046 H   0  0  0  0  0  0  0  0  0  0  0  0
    0.7252   -5.0326   -0.4328 H   0  0  0  0  0  0  0  0  0  0  0  0
    0.6930   -3.3189   -0.0277 H   0  0  0  0  0  0  0  0  0  0  0  0
    3.1284   -5.1877    0.3754 H   0  0  0  0  0  0  0  0  0  0  0  0
    2.0360   -4.6117    1.6588 H   0  0  0  0  0  0  0  0  0  0  0  0
    3.0883   -3.4642    0.7973 H   0  0  0  0  0  0  0  0  0  0  0  0
    0.0531   -2.8652   -2.4686 H   0  0  0  0  0  0  0  0  0  0  0  0
    0.1196   -4.6074   -2.7266 H   0  0  0  0  0  0  0  0  0  0  0  0
    1.7372   -2.5196   -4.3334 H   0  0  0  0  0  0  0  0  0  0  0  0
    0.3057   -3.4028   -4.9114 H   0  0  0  0  0  0  0  0  0  0  0  0
    1.8243   -4.2742   -4.5817 H   0  0  0  0  0  0  0  0  0  0  0  0
  1  2  1  0
  1 22  1  0
  1 23  1  0
  1 24  1  0
  2  3  1  0
  2 25  1  0
  2 26  1  0
  3  4  1  0
  4  5  2  0
  4 13  1  0
  5  6  1  0
  5 27  1  0
  6  7  2  0
  6 28  1  0
  7  8  1  0
  7 12  1  0
  8  9  1  1
  8 10  2  0
  8 11  2  0
  9 29  1  0
  9 30  1  0
 12 13  2  0
 12 31  1  0
 13 14  1  0
 14 15  2  0
 14 16  1  0
 16 17  1  0
 16 32  1  0
 17 18  1  0
 17 20  1  0
 17 33  1  6
 18 19  1  0
 18 34  1  0
 18 35  1  0
 19 36  1  0
 19 37  1  0
 19 38  1  0
 20 21  1  0
 20 39  1  0
 20 40  1  0
 21 41  1  0
 21 42  1  0
 21 43  1  0
M  END

