
     RDKit          3D

 43 45  0  0  0  0  0  0  0  0999 V2000
    0.8444    0.5399   -0.0679 C   0  0  0  0  0  0  0  0  0  0  0  0
    1.7644    1.1949   -0.9323 O   0  0  0  0  0  0  0  0  0  0  0  0
    2.6501    0.4952   -1.6378 C   0  0  0  0  0  0  0  0  0  0  0  0
    3.5199    1.2721   -2.4635 C   0  0  0  0  0  0  0  0  0  0  0  0
    4.4888    0.6767   -3.2363 C   0  0  0  0  0  0  0  0  0  0  0  0
    4.6569   -0.7388   -3.2213 C   0  0  0  0  0  0  0  0  0  0  0  0
    5.5988   -1.4341   -3.8990 N   0  0  0  0  0  0  0  0  0  0  0  0
    6.4607   -0.9152   -4.8976 C   0  0  0  0  0  0  0  0  0  0  0  0
    6.4795    0.2569   -5.1965 O   0  0  0  0  0  0  0  0  0  0  0  0
    7.3379   -1.9513   -5.5801 C   0  0  0  0  0  0  0  0  0  0  0  0
    8.5742   -2.7303   -4.4250 S   0  0  0  0  0  0  0  0  0  0  0  0
    7.7318   -4.1500   -3.7905 C   0  0  0  0  0  0  0  0  0  0  0  0
    6.4163   -3.9869   -3.4317 N   0  0  0  0  0  0  0  0  0  0  0  0
    5.7707   -5.1155   -3.6384 N   0  0  0  0  0  0  0  0  0  0  0  0
    6.5321   -6.0400   -4.1269 N   0  0  0  0  0  0  0  0  0  0  0  0
    7.7925   -5.4693   -4.2888 N   0  0  0  0  0  0  0  0  0  0  0  0
    8.8679   -6.2473   -4.6886 C   0  0  0  0  0  0  0  0  0  0  0  0
   10.1944   -5.7583   -4.6333 C   0  0  0  0  0  0  0  0  0  0  0  0
   11.2498   -6.5693   -5.0442 C   0  0  0  0  0  0  0  0  0  0  0  0
   11.0359   -7.8694   -5.5177 C   0  0  0  0  0  0  0  0  0  0  0  0
    9.7190   -8.3315   -5.5541 C   0  0  0  0  0  0  0  0  0  0  0  0
    9.4868   -9.5818   -5.9988 F   0  0  0  0  0  0  0  0  0  0  0  0
    8.6369   -7.5641   -5.1539 C   0  0  0  0  0  0  0  0  0  0  0  0
    3.7239   -1.5218   -2.4068 C   0  0  0  0  0  0  0  0  0  0  0  0
    3.8868   -2.8197   -2.5274 O   0  0  0  0  0  0  0  0  0  0  0  0
    3.1381   -3.7831   -1.7956 C   0  0  0  0  0  0  0  0  0  0  0  0
    2.7562   -0.9042   -1.6153 C   0  0  0  0  0  0  0  0  0  0  0  0
    0.2443    1.3318    0.3950 H   0  0  0  0  0  0  0  0  0  0  0  0
    1.3730   -0.0260    0.7158 H   0  0  0  0  0  0  0  0  0  0  0  0
    0.1842   -0.1366   -0.6343 H   0  0  0  0  0  0  0  0  0  0  0  0
    3.3946    2.3554   -2.4506 H   0  0  0  0  0  0  0  0  0  0  0  0
    5.1559    1.2665   -3.8576 H   0  0  0  0  0  0  0  0  0  0  0  0
    5.7606   -2.4730   -3.6363 H   0  0  0  0  0  0  0  0  0  0  0  0
    7.8824   -1.4335   -6.3794 H   0  0  0  0  0  0  0  0  0  0  0  0
    6.7231   -2.7503   -6.0207 H   0  0  0  0  0  0  0  0  0  0  0  0
   10.3916   -4.7536   -4.2639 H   0  0  0  0  0  0  0  0  0  0  0  0
   12.2696   -6.1794   -4.9905 H   0  0  0  0  0  0  0  0  0  0  0  0
   11.8506   -8.5153   -5.8465 H   0  0  0  0  0  0  0  0  0  0  0  0
    7.6274   -7.9673   -5.1941 H   0  0  0  0  0  0  0  0  0  0  0  0
    3.5434   -4.7494   -2.1161 H   0  0  0  0  0  0  0  0  0  0  0  0
    2.0667   -3.7105   -2.0444 H   0  0  0  0  0  0  0  0  0  0  0  0
    3.2848   -3.6439   -0.7125 H   0  0  0  0  0  0  0  0  0  0  0  0
    2.0858   -1.5127   -1.0146 H   0  0  0  0  0  0  0  0  0  0  0  0
  1  2  1  0
  1 28  1  0
  1 29  1  0
  1 30  1  0
  2  3  1  0
  3  4  2  0
  3 27  1  0
  4  5  1  0
  4 31  1  0
  5  6  2  0
  5 32  1  0
  6  7  1  0
  6 24  1  0
  7  8  1  0
  7 33  1  0
  8  9  2  0
  8 10  1  0
 10 11  1  0
 10 34  1  0
 10 35  1  0
 11 12  1  0
 12 13  2  0
 12 16  1  0
 13 14  1  0
 14 15  2  0
 15 16  1  0
 16 17  1  0
 17 18  2  0
 17 23  1  0
 18 19  1  0
 18 36  1  0
 19 20  2  0
 19 37  1  0
 20 21  1  0
 20 38  1  0
 21 22  1  0
 21 23  2  0
 23 39  1  0
 24 25  1  0
 24 27  2  0
 25 26  1  0
 26 40  1  0
 26 41  1  0
 26 42  1  0
 27 43  1  0
M  END

