
     RDKit          3D

 50 51  0  0  0  0  0  0  0  0999 V2000
    3.8155   -0.9402   -2.4189 C   0  0  0  0  0  0  0  0  0  0  0  0
    3.1223    0.4159   -2.5121 C   0  0  0  0  0  0  0  0  0  0  0  0
    2.9717    1.1688   -1.1599 C   0  0  0  0  0  0  0  0  0  0  0  0
    4.2385    1.5081   -0.5520 N   0  0  0  0  0  0  0  0  0  0  0  0
    4.5691    0.7790    0.7142 C   0  0  0  0  0  0  0  0  0  0  0  0
    5.8892    0.9561    1.3927 C   0  0  0  0  0  0  0  0  0  0  0  0
    6.0860    1.9645    2.3901 C   0  0  0  0  0  0  0  0  0  0  0  0
    7.3097    2.1578    2.9879 C   0  0  0  0  0  0  0  0  0  0  0  0
    8.4538    1.3574    2.6046 C   0  0  0  0  0  0  0  0  0  0  0  0
    9.7529    1.8365    2.8282 C   0  0  0  0  0  0  0  0  0  0  0  0
   10.8074    2.3580    2.8957 N   0  0  0  0  0  0  0  0  0  0  0  0
    8.1961    0.2073    1.7660 C   0  0  0  0  0  0  0  0  0  0  0  0
    6.9617    0.0304    1.1809 C   0  0  0  0  0  0  0  0  0  0  0  0
    4.9417    2.6317   -1.2287 C   0  0  0  0  0  0  0  0  0  0  0  0
    4.2846    3.3283   -1.9700 O   0  0  0  0  0  0  0  0  0  0  0  0
    6.2526    2.6925   -0.9892 N   0  0  0  0  0  0  0  0  0  0  0  0
    7.1273    3.6693   -1.6781 C   0  0  1  0  0  0  0  0  0  0  0  0
    7.1509    5.0426   -0.9812 C   0  0  0  0  0  0  0  0  0  0  0  0
    7.7472    4.9697    0.4275 C   0  0  0  0  0  0  0  0  0  0  0  0
    9.0821    4.2040    0.5439 C   0  0  2  0  0  0  0  0  0  0  0  0
   10.3150    5.0596    0.2752 C   0  0  0  0  0  0  0  0  0  0  0  0
   10.3349    5.9977   -0.4861 O   0  0  0  0  0  0  0  0  0  0  0  0
   11.4240    4.6598    0.9171 O   0  0  0  0  0  0  0  0  0  0  0  0
    9.1508    2.9319   -0.3463 C   0  0  0  0  0  0  0  0  0  0  0  0
    8.5548    3.1137   -1.7453 C   0  0  0  0  0  0  0  0  0  0  0  0
    3.8059   -1.4358   -3.4017 H   0  0  0  0  0  0  0  0  0  0  0  0
    3.3090   -1.6132   -1.7077 H   0  0  0  0  0  0  0  0  0  0  0  0
    4.8695   -0.8505   -2.1117 H   0  0  0  0  0  0  0  0  0  0  0  0
    2.0941    0.2959   -2.8895 H   0  0  0  0  0  0  0  0  0  0  0  0
    3.6372    1.0820   -3.2202 H   0  0  0  0  0  0  0  0  0  0  0  0
    2.4054    0.5565   -0.4464 H   0  0  0  0  0  0  0  0  0  0  0  0
    2.4367    2.1084   -1.3617 H   0  0  0  0  0  0  0  0  0  0  0  0
    4.3781   -0.2775    0.4539 H   0  0  0  0  0  0  0  0  0  0  0  0
    3.7278    1.0614    1.3761 H   0  0  0  0  0  0  0  0  0  0  0  0
    5.2478    2.6040    2.6860 H   0  0  0  0  0  0  0  0  0  0  0  0
    7.4365    2.9484    3.7303 H   0  0  0  0  0  0  0  0  0  0  0  0
    9.0034   -0.4995    1.5642 H   0  0  0  0  0  0  0  0  0  0  0  0
    6.8055   -0.8391    0.5334 H   0  0  0  0  0  0  0  0  0  0  0  0
    6.6208    2.1143   -0.2296 H   0  0  0  0  0  0  0  0  0  0  0  0
    6.7069    3.7891   -2.6879 H   0  0  0  0  0  0  0  0  0  0  0  0
    6.1344    5.4666   -0.9493 H   0  0  0  0  0  0  0  0  0  0  0  0
    7.7613    5.7089   -1.6109 H   0  0  0  0  0  0  0  0  0  0  0  0
    7.0238    4.4733    1.0947 H   0  0  0  0  0  0  0  0  0  0  0  0
    7.8780    5.9908    0.8175 H   0  0  0  0  0  0  0  0  0  0  0  0
    9.1680    3.8670    1.5831 H   0  0  0  0  0  0  0  0  0  0  0  0
   11.2560    3.9249    1.5505 H   0  0  0  0  0  0  0  0  0  0  0  0
    8.6332    2.1140    0.1722 H   0  0  0  0  0  0  0  0  0  0  0  0
   10.1951    2.5936   -0.4248 H   0  0  0  0  0  0  0  0  0  0  0  0
    8.5706    2.1549   -2.2904 H   0  0  0  0  0  0  0  0  0  0  0  0
    9.1556    3.8266   -2.3321 H   0  0  0  0  0  0  0  0  0  0  0  0
  1  2  1  0
  1 26  1  0
  1 27  1  0
  1 28  1  0
  2  3  1  0
  2 29  1  0
  2 30  1  0
  3  4  1  0
  3 31  1  0
  3 32  1  0
  4  5  1  0
  4 14  1  0
  5  6  1  0
  5 33  1  0
  5 34  1  0
  6  7  2  0
  6 13  1  0
  7  8  1  0
  7 35  1  0
  8  9  2  0
  8 36  1  0
  9 10  1  0
  9 12  1  0
 10 11  3  0
 12 13  2  0
 12 37  1  0
 13 38  1  0
 14 15  2  0
 14 16  1  0
 16 17  1  0
 16 39  1  0
 17 18  1  0
 17 25  1  0
 17 40  1  6
 18 19  1  0
 18 41  1  0
 18 42  1  0
 19 20  1  0
 19 43  1  0
 19 44  1  0
 20 21  1  0
 20 24  1  0
 20 45  1  1
 21 22  2  0
 21 23  1  0
 23 46  1  0
 24 25  1  0
 24 47  1  0
 24 48  1  0
 25 49  1  0
 25 50  1  0
M  END

