
     RDKit          3D

 43 45  0  0  0  0  0  0  0  0999 V2000
    2.2338   -0.3148    0.5403 O   0  0  0  0  0  0  0  0  0  0  0  0
    2.2800    0.3226   -0.4803 C   0  0  0  0  0  0  0  0  0  0  0  0
    1.4991   -0.0306   -1.5234 O   0  0  0  0  0  0  0  0  0  0  0  0
    3.2092    1.5223   -0.7151 C   0  0  1  0  0  0  0  0  0  0  0  0
    3.9514    1.1634   -1.4539 H   0  0  0  0  0  0  0  0  0  0  0  0
    2.4929    2.7559   -1.3114 C   0  0  0  0  0  0  0  0  0  0  0  0
    1.5765    3.4396   -0.2905 C   0  0  0  0  0  0  0  0  0  0  0  0
    2.3326    3.8014    0.9936 C   0  0  0  0  0  0  0  0  0  0  0  0
    3.0133    2.5685    1.6091 C   0  0  2  0  0  0  0  0  0  0  0  0
    2.2283    1.8451    1.8715 H   0  0  0  0  0  0  0  0  0  0  0  0
    3.8010    2.9527    2.8672 C   0  0  0  0  0  0  0  0  0  0  0  0
    4.2681    4.0778    2.9854 O   0  0  0  0  0  0  0  0  0  0  0  0
    3.9711    1.9985    3.8469 N   0  0  0  0  0  0  0  0  0  0  0  0
    3.5420    0.6075    3.7954 C   0  0  0  0  0  0  0  0  0  0  0  0
    4.7005   -0.3922    3.7901 C   0  0  0  0  0  0  0  0  0  0  0  0
    5.4976   -0.3811    4.9700 O   0  0  0  0  0  0  0  0  0  0  0  0
    6.4756    0.5785    5.0648 C   0  0  0  0  0  0  0  0  0  0  0  0
    7.8040    0.1571    5.1840 C   0  0  0  0  0  0  0  0  0  0  0  0
    8.8273    1.1002    5.3073 C   0  0  0  0  0  0  0  0  0  0  0  0
    8.5242    2.4646    5.3005 C   0  0  0  0  0  0  0  0  0  0  0  0
    7.1936    2.8784    5.1885 C   0  0  0  0  0  0  0  0  0  0  0  0
    6.1506    1.9489    5.0831 C   0  0  0  0  0  0  0  0  0  0  0  0
    4.7015    2.3873    5.0556 C   0  0  0  0  0  0  0  0  0  0  0  0
    3.9491    1.9005    0.5766 C   0  0  0  0  0  0  0  0  0  0  0  0
    1.6372    0.5713   -2.2689 H   0  0  0  0  0  0  0  0  0  0  0  0
    1.9291    2.4995   -2.2272 H   0  0  0  0  0  0  0  0  0  0  0  0
    3.2709    3.4667   -1.6382 H   0  0  0  0  0  0  0  0  0  0  0  0
    0.7286    2.7713   -0.0515 H   0  0  0  0  0  0  0  0  0  0  0  0
    1.1353    4.3454   -0.7379 H   0  0  0  0  0  0  0  0  0  0  0  0
    1.6451    4.2545    1.7255 H   0  0  0  0  0  0  0  0  0  0  0  0
    3.1007    4.5637    0.7861 H   0  0  0  0  0  0  0  0  0  0  0  0
    2.9439    0.4136    2.8969 H   0  0  0  0  0  0  0  0  0  0  0  0
    2.9032    0.3951    4.6726 H   0  0  0  0  0  0  0  0  0  0  0  0
    5.3411   -0.2258    2.9054 H   0  0  0  0  0  0  0  0  0  0  0  0
    4.2807   -1.4080    3.7210 H   0  0  0  0  0  0  0  0  0  0  0  0
    8.0111   -0.9151    5.1776 H   0  0  0  0  0  0  0  0  0  0  0  0
    9.8641    0.7665    5.3993 H   0  0  0  0  0  0  0  0  0  0  0  0
    9.3218    3.2068    5.3842 H   0  0  0  0  0  0  0  0  0  0  0  0
    6.9500    3.9441    5.1857 H   0  0  0  0  0  0  0  0  0  0  0  0
    4.6447    3.4785    5.1369 H   0  0  0  0  0  0  0  0  0  0  0  0
    4.1748    1.9400    5.9173 H   0  0  0  0  0  0  0  0  0  0  0  0
    4.4201    1.0022    1.0001 H   0  0  0  0  0  0  0  0  0  0  0  0
    4.7615    2.6047    0.3316 H   0  0  0  0  0  0  0  0  0  0  0  0
  1  2  2  0
  2  3  1  0
  2  4  1  0
  3 25  1  0
  4  5  1  6
  4  6  1  0
  4 24  1  0
  6  7  1  0
  6 26  1  0
  6 27  1  0
  7  8  1  0
  7 28  1  0
  7 29  1  0
  8  9  1  0
  8 30  1  0
  8 31  1  0
  9 10  1  1
  9 11  1  0
  9 24  1  0
 11 12  2  0
 11 13  1  0
 13 14  1  0
 13 23  1  0
 14 15  1  0
 14 32  1  0
 14 33  1  0
 15 16  1  0
 15 34  1  0
 15 35  1  0
 16 17  1  0
 17 18  1  0
 17 22  2  0
 18 19  2  0
 18 36  1  0
 19 20  1  0
 19 37  1  0
 20 21  2  0
 20 38  1  0
 21 22  1  0
 21 39  1  0
 22 23  1  0
 23 40  1  0
 23 41  1  0
 24 42  1  0
 24 43  1  0
M  END

