
     RDKit          3D

 65 69  0  0  0  0  0  0  0  0999 V2000
    0.4612   -3.3961   -0.1465 C   0  0  0  0  0  0  0  0  0  0  0  0
    1.8812   -3.5071   -0.2616 O   0  0  0  0  0  0  0  0  0  0  0  0
    2.3809   -3.5032   -1.5060 C   0  0  0  0  0  0  0  0  0  0  0  0
    1.6906   -3.4106   -2.4940 O   0  0  0  0  0  0  0  0  0  0  0  0
    3.9257   -3.5879   -1.5035 C   0  0  1  0  0  0  0  0  0  0  0  0
    4.3745   -4.4836   -0.5000 O   0  0  0  0  0  0  0  0  0  0  0  0
    3.9821   -5.8329   -0.5979 C   0  0  0  0  0  0  0  0  0  0  0  0
    4.4588   -3.9755   -2.9004 C   0  0  0  0  0  0  0  0  0  0  0  0
    4.3604   -2.8647   -3.9601 C   0  0  0  0  0  0  0  0  0  0  0  0
    4.9287   -1.5199   -3.4845 C   0  0  2  0  0  0  0  0  0  0  0  0
    6.4334   -1.4330   -3.4455 C   0  0  0  0  0  0  0  0  0  0  0  0
    7.2151   -2.2597   -4.0304 N   0  0  0  0  0  0  0  0  0  0  0  0
    8.5891   -2.0655   -4.0495 C   0  0  0  0  0  0  0  0  0  0  0  0
    9.4211   -0.9294   -4.0157 C   0  0  0  0  0  0  0  0  0  0  0  0
    9.0808    0.5017   -4.0492 C   0  0  0  0  0  0  0  0  0  0  0  0
    9.7589    1.4430   -3.2563 C   0  0  0  0  0  0  0  0  0  0  0  0
    9.4366    2.7940   -3.3485 C   0  0  0  0  0  0  0  0  0  0  0  0
    8.4212    3.2099   -4.2303 C   0  0  0  0  0  0  0  0  0  0  0  0
    8.0047    4.6339   -4.3692 C   0  0  0  0  0  0  0  0  0  0  0  0
    7.1102    4.9968   -5.3944 C   0  0  0  0  0  0  0  0  0  0  0  0
    6.7049    6.3214   -5.5558 C   0  0  0  0  0  0  0  0  0  0  0  0
    7.1798    7.3157   -4.6940 C   0  0  0  0  0  0  0  0  0  0  0  0
    8.0633    6.9694   -3.6674 C   0  0  0  0  0  0  0  0  0  0  0  0
    8.4710    5.6439   -3.5066 C   0  0  0  0  0  0  0  0  0  0  0  0
    7.7865    2.3101   -5.0038 N   0  0  0  0  0  0  0  0  0  0  0  0
    8.1062    1.0259   -4.9240 C   0  0  0  0  0  0  0  0  0  0  0  0
   10.7296   -1.4751   -4.0382 C   0  0  0  0  0  0  0  0  0  0  0  0
   10.7279   -2.7981   -4.1020 N   0  0  0  0  0  0  0  0  0  0  0  0
    9.4324   -3.1572   -4.1224 N   0  0  0  0  0  0  0  0  0  0  0  0
    9.1150   -4.5267   -4.1811 C   0  0  0  0  0  0  0  0  0  0  0  0
    9.9529   -5.6231   -4.0646 C   0  0  0  0  0  0  0  0  0  0  0  0
    9.1307   -6.7726   -4.2432 C   0  0  0  0  0  0  0  0  0  0  0  0
    7.8360   -6.3360   -4.4580 C   0  0  0  0  0  0  0  0  0  0  0  0
    7.8398   -4.9624   -4.4203 N   0  0  0  0  0  0  0  0  0  0  0  0
    7.0607   -4.3180   -4.5240 H   0  0  0  0  0  0  0  0  0  0  0  0
    4.3120   -1.1212   -2.1266 C   0  0  0  0  0  0  0  0  0  0  0  0
    4.4954   -2.2181   -1.0750 C   0  0  0  0  0  0  0  0  0  0  0  0
    0.2391   -3.4219    0.9272 H   0  0  0  0  0  0  0  0  0  0  0  0
   -0.0384   -4.2306   -0.6612 H   0  0  0  0  0  0  0  0  0  0  0  0
    0.1052   -2.4533   -0.5889 H   0  0  0  0  0  0  0  0  0  0  0  0
    4.3509   -6.3354    0.3079 H   0  0  0  0  0  0  0  0  0  0  0  0
    4.4181   -6.3434   -1.4760 H   0  0  0  0  0  0  0  0  0  0  0  0
    2.8823   -5.9524   -0.6312 H   0  0  0  0  0  0  0  0  0  0  0  0
    3.9292   -4.8663   -3.2717 H   0  0  0  0  0  0  0  0  0  0  0  0
    5.5115   -4.2621   -2.7453 H   0  0  0  0  0  0  0  0  0  0  0  0
    3.3034   -2.7203   -4.2235 H   0  0  0  0  0  0  0  0  0  0  0  0
    4.8786   -3.1847   -4.8779 H   0  0  0  0  0  0  0  0  0  0  0  0
    4.6337   -0.7401   -4.2160 H   0  0  0  0  0  0  0  0  0  0  0  0
    6.8379   -0.5603   -2.9007 H   0  0  0  0  0  0  0  0  0  0  0  0
   10.5348    1.1118   -2.5613 H   0  0  0  0  0  0  0  0  0  0  0  0
    9.9777    3.5156   -2.7359 H   0  0  0  0  0  0  0  0  0  0  0  0
    6.7455    4.2123   -6.0582 H   0  0  0  0  0  0  0  0  0  0  0  0
    6.0129    6.5809   -6.3614 H   0  0  0  0  0  0  0  0  0  0  0  0
    6.8620    8.3539   -4.8200 H   0  0  0  0  0  0  0  0  0  0  0  0
    8.4366    7.7359   -2.9834 H   0  0  0  0  0  0  0  0  0  0  0  0
    9.1525    5.4024   -2.6890 H   0  0  0  0  0  0  0  0  0  0  0  0
    7.5708    0.3485   -5.6005 H   0  0  0  0  0  0  0  0  0  0  0  0
   11.6744   -0.9312   -4.0476 H   0  0  0  0  0  0  0  0  0  0  0  0
   11.0228   -5.5784   -3.8848 H   0  0  0  0  0  0  0  0  0  0  0  0
    9.4565   -7.8105   -4.2146 H   0  0  0  0  0  0  0  0  0  0  0  0
    6.9152   -6.8882   -4.6297 H   0  0  0  0  0  0  0  0  0  0  0  0
    3.2405   -0.9098   -2.2772 H   0  0  0  0  0  0  0  0  0  0  0  0
    4.7612   -0.1818   -1.7626 H   0  0  0  0  0  0  0  0  0  0  0  0
    4.0403   -1.9363   -0.1137 H   0  0  0  0  0  0  0  0  0  0  0  0
    5.5672   -2.3886   -0.8777 H   0  0  0  0  0  0  0  0  0  0  0  0
  1  2  1  0
  1 38  1  0
  1 39  1  0
  1 40  1  0
  2  3  1  0
  3  4  2  0
  3  5  1  0
  5  6  1  1
  5  8  1  0
  5 37  1  0
  6  7  1  0
  7 41  1  0
  7 42  1  0
  7 43  1  0
  8  9  1  0
  8 44  1  0
  8 45  1  0
  9 10  1  0
  9 46  1  0
  9 47  1  0
 10 11  1  0
 10 36  1  0
 10 48  1  6
 11 12  2  0
 11 49  1  0
 12 13  1  0
 13 14  2  0
 13 29  1  0
 14 15  1  0
 14 27  1  0
 15 16  2  0
 15 26  1  0
 16 17  1  0
 16 50  1  0
 17 18  2  0
 17 51  1  0
 18 19  1  0
 18 25  1  0
 19 20  2  0
 19 24  1  0
 20 21  1  0
 20 52  1  0
 21 22  2  0
 21 53  1  0
 22 23  1  0
 22 54  1  0
 23 24  2  0
 23 55  1  0
 24 56  1  0
 25 26  2  0
 26 57  1  0
 27 28  2  0
 27 58  1  0
 28 29  1  0
 29 30  1  0
 30 31  2  0
 30 34  1  0
 31 32  1  0
 31 59  1  0
 32 33  2  0
 32 60  1  0
 33 34  1  0
 33 61  1  0
 34 35  1  0
 36 37  1  0
 36 62  1  0
 36 63  1  0
 37 64  1  0
 37 65  1  0
M  END

