
     RDKit          3D

 53 56  0  0  0  0  0  0  0  0999 V2000
    4.4007    1.8737    1.7314 C   0  0  0  0  0  0  0  0  0  0  0  0
    4.7729    1.4225    0.4483 O   0  0  0  0  0  0  0  0  0  0  0  0
    3.9473    1.6525   -0.6040 C   0  0  0  0  0  0  0  0  0  0  0  0
    2.7095    2.3065   -0.5184 C   0  0  0  0  0  0  0  0  0  0  0  0
    1.9527    2.5032   -1.6815 C   0  0  0  0  0  0  0  0  0  0  0  0
    2.4065    2.0572   -2.9189 C   0  0  0  0  0  0  0  0  0  0  0  0
    3.6375    1.3832   -3.0051 C   0  0  0  0  0  0  0  0  0  0  0  0
    4.0802    0.9241   -4.3719 C   0  0  0  0  0  0  0  0  0  0  0  0
    3.6490    1.4224   -5.3907 O   0  0  0  0  0  0  0  0  0  0  0  0
    4.9917   -0.1228   -4.3675 N   0  0  0  0  0  0  0  0  0  0  0  0
    5.5549   -0.6961   -5.5150 C   0  0  0  0  0  0  0  0  0  0  0  0
    6.2096    0.0119   -6.4097 N   0  0  0  0  0  0  0  0  0  0  0  0
    6.6068   -0.8281   -7.3937 N   0  0  0  0  0  0  0  0  0  0  0  0
    7.3352   -0.3313   -8.5471 C   0  0  0  0  0  0  0  0  0  0  0  0
    8.7283    0.2290   -8.2108 C   0  0  1  0  0  0  0  0  0  0  0  0
    9.6420   -0.8343   -7.5928 C   0  0  0  0  0  0  0  0  0  0  0  0
    9.3500    0.8503   -9.4665 C   0  0  0  0  0  0  0  0  0  0  0  0
    6.2278   -2.1217   -7.1345 C   0  0  0  0  0  0  0  0  0  0  0  0
    6.4593   -3.1830   -7.8784 N   0  0  0  0  0  0  0  0  0  0  0  0
    5.9613   -4.3484   -7.4045 C   0  0  0  0  0  0  0  0  0  0  0  0
    6.1718   -5.5460   -8.1538 C   0  0  0  0  0  0  0  0  0  0  0  0
    5.6816   -6.7510   -7.7156 C   0  0  0  0  0  0  0  0  0  0  0  0
    4.9401   -6.8664   -6.4960 C   0  0  0  0  0  0  0  0  0  0  0  0
    4.4233   -8.2148   -6.0628 C   0  0  0  0  0  0  0  0  0  0  0  0
    4.7232   -5.7252   -5.7546 C   0  0  0  0  0  0  0  0  0  0  0  0
    5.2145   -4.4484   -6.1659 C   0  0  0  0  0  0  0  0  0  0  0  0
    4.9934   -3.2761   -5.4076 C   0  0  0  0  0  0  0  0  0  0  0  0
    5.5132   -2.0855   -5.8904 C   0  0  0  0  0  0  0  0  0  0  0  0
    4.4046    1.1942   -1.8518 C   0  0  0  0  0  0  0  0  0  0  0  0
    5.2147    1.5889    2.4114 H   0  0  0  0  0  0  0  0  0  0  0  0
    3.4639    1.4014    2.0788 H   0  0  0  0  0  0  0  0  0  0  0  0
    4.2772    2.9714    1.7619 H   0  0  0  0  0  0  0  0  0  0  0  0
    2.3313    2.6707    0.4370 H   0  0  0  0  0  0  0  0  0  0  0  0
    0.9922    3.0198   -1.6082 H   0  0  0  0  0  0  0  0  0  0  0  0
    1.8329    2.2175   -3.8327 H   0  0  0  0  0  0  0  0  0  0  0  0
    5.1379   -0.6135   -3.4935 H   0  0  0  0  0  0  0  0  0  0  0  0
    6.7237    0.4499   -9.0281 H   0  0  0  0  0  0  0  0  0  0  0  0
    7.4144   -1.1807   -9.2429 H   0  0  0  0  0  0  0  0  0  0  0  0
    8.5753    1.0307   -7.4667 H   0  0  0  0  0  0  0  0  0  0  0  0
    9.8170   -1.6664   -8.2960 H   0  0  0  0  0  0  0  0  0  0  0  0
    9.2076   -1.2593   -6.6746 H   0  0  0  0  0  0  0  0  0  0  0  0
   10.6216   -0.4044   -7.3289 H   0  0  0  0  0  0  0  0  0  0  0  0
    9.5071    0.0906  -10.2519 H   0  0  0  0  0  0  0  0  0  0  0  0
   10.3298    1.2998   -9.2404 H   0  0  0  0  0  0  0  0  0  0  0  0
    8.7088    1.6411   -9.8888 H   0  0  0  0  0  0  0  0  0  0  0  0
    6.7355   -5.4612   -9.0850 H   0  0  0  0  0  0  0  0  0  0  0  0
    5.8577   -7.6522   -8.3108 H   0  0  0  0  0  0  0  0  0  0  0  0
    5.2494   -8.9331   -5.9233 H   0  0  0  0  0  0  0  0  0  0  0  0
    3.7509   -8.6477   -6.8230 H   0  0  0  0  0  0  0  0  0  0  0  0
    3.8667   -8.1522   -5.1163 H   0  0  0  0  0  0  0  0  0  0  0  0
    4.1581   -5.7819   -4.8191 H   0  0  0  0  0  0  0  0  0  0  0  0
    4.4227   -3.3253   -4.4758 H   0  0  0  0  0  0  0  0  0  0  0  0
    5.3901    0.7247   -1.8800 H   0  0  0  0  0  0  0  0  0  0  0  0
  1  2  1  0
  1 30  1  0
  1 31  1  0
  1 32  1  0
  2  3  1  0
  3  4  2  0
  3 29  1  0
  4  5  1  0
  4 33  1  0
  5  6  2  0
  5 34  1  0
  6  7  1  0
  6 35  1  0
  7  8  1  0
  7 29  2  0
  8  9  2  0
  8 10  1  0
 10 11  1  0
 10 36  1  0
 11 12  2  0
 11 28  1  0
 12 13  1  0
 13 14  1  0
 13 18  1  0
 14 15  1  0
 14 37  1  0
 14 38  1  0
 15 16  1  0
 15 17  1  0
 15 39  1  1
 16 40  1  0
 16 41  1  0
 16 42  1  0
 17 43  1  0
 17 44  1  0
 17 45  1  0
 18 19  1  0
 18 28  2  0
 19 20  2  0
 20 21  1  0
 20 26  1  0
 21 22  2  0
 21 46  1  0
 22 23  1  0
 22 47  1  0
 23 24  1  0
 23 25  2  0
 24 48  1  0
 24 49  1  0
 24 50  1  0
 25 26  1  0
 25 51  1  0
 26 27  2  0
 27 28  1  0
 27 52  1  0
 29 53  1  0
M  END

