
     RDKit          3D

 48 51  0  0  0  0  0  0  0  0999 V2000
    1.0980    1.0605    0.0883 C   0  0  0  0  0  0  0  0  0  0  0  0
    2.4542    0.4275   -0.0540 C   0  0  0  0  0  0  0  0  0  0  0  0
    2.8864   -0.0325   -1.0856 O   0  0  0  0  0  0  0  0  0  0  0  0
    3.2348    0.3572    1.1525 N   0  0  0  0  0  0  0  0  0  0  0  0
    2.5477    0.3865    2.4463 C   0  0  0  0  0  0  0  0  0  0  0  0
    1.7546   -0.7394    2.8219 C   0  0  0  0  0  0  0  0  0  0  0  0
    1.0900   -0.6703    4.1010 C   0  0  0  0  0  0  0  0  0  0  0  0
    1.2387    0.4245    4.9423 C   0  0  0  0  0  0  0  0  0  0  0  0
    0.6213    0.4896    6.2147 N   0  0  0  0  0  0  0  0  0  0  0  0
   -0.0266   -0.6967    6.7427 C   0  0  0  0  0  0  0  0  0  0  0  0
   -0.2815   -0.5326    8.2405 C   0  0  0  0  0  0  0  0  0  0  0  0
   -1.0278    0.6310    8.5287 O   0  0  0  0  0  0  0  0  0  0  0  0
   -0.3798    1.7875    8.0363 C   0  0  0  0  0  0  0  0  0  0  0  0
   -0.1391    1.6960    6.5343 C   0  0  0  0  0  0  0  0  0  0  0  0
    2.0588    1.5415    4.5344 C   0  0  0  0  0  0  0  0  0  0  0  0
    2.7086    1.4834    3.2718 C   0  0  0  0  0  0  0  0  0  0  0  0
    4.5675    0.1293    1.0584 C   0  0  0  0  0  0  0  0  0  0  0  0
    5.5391    0.5550    0.0620 C   0  0  0  0  0  0  0  0  0  0  0  0
    5.3197    1.4241   -1.1293 C   0  0  0  0  0  0  0  0  0  0  0  0
    6.7538    0.1514    0.4039 N   0  0  0  0  0  0  0  0  0  0  0  0
    6.6465   -0.5239    1.5730 C   0  0  0  0  0  0  0  0  0  0  0  0
    7.6428   -1.1504    2.3231 C   0  0  0  0  0  0  0  0  0  0  0  0
    7.2866   -1.7771    3.5140 C   0  0  0  0  0  0  0  0  0  0  0  0
    5.9413   -1.7782    3.9448 C   0  0  0  0  0  0  0  0  0  0  0  0
    4.9606   -1.1568    3.2028 C   0  0  0  0  0  0  0  0  0  0  0  0
    5.3266   -0.5411    2.0247 N   0  0  0  0  0  0  0  0  0  0  0  0
    0.6888    1.2187   -0.9170 H   0  0  0  0  0  0  0  0  0  0  0  0
    1.1553    2.0031    0.6506 H   0  0  0  0  0  0  0  0  0  0  0  0
    0.4363    0.3959    0.6638 H   0  0  0  0  0  0  0  0  0  0  0  0
    1.6170   -1.5934    2.1600 H   0  0  0  0  0  0  0  0  0  0  0  0
    0.4342   -1.4945    4.3819 H   0  0  0  0  0  0  0  0  0  0  0  0
    0.6270   -1.5686    6.5839 H   0  0  0  0  0  0  0  0  0  0  0  0
   -0.9922   -0.9085    6.2298 H   0  0  0  0  0  0  0  0  0  0  0  0
    0.6934   -0.5020    8.7714 H   0  0  0  0  0  0  0  0  0  0  0  0
   -0.8585   -1.3881    8.6254 H   0  0  0  0  0  0  0  0  0  0  0  0
    0.5916    1.9319    8.5543 H   0  0  0  0  0  0  0  0  0  0  0  0
   -1.0307    2.6442    8.2712 H   0  0  0  0  0  0  0  0  0  0  0  0
    0.4048    2.5840    6.1862 H   0  0  0  0  0  0  0  0  0  0  0  0
   -1.1232    1.6900    6.0133 H   0  0  0  0  0  0  0  0  0  0  0  0
    2.2995    2.3385    5.2360 H   0  0  0  0  0  0  0  0  0  0  0  0
    3.3467    2.3123    2.9532 H   0  0  0  0  0  0  0  0  0  0  0  0
    4.6316    2.2525   -0.9011 H   0  0  0  0  0  0  0  0  0  0  0  0
    4.8691    0.8547   -1.9545 H   0  0  0  0  0  0  0  0  0  0  0  0
    6.2888    1.8322   -1.4439 H   0  0  0  0  0  0  0  0  0  0  0  0
    8.6657   -1.1262    1.9483 H   0  0  0  0  0  0  0  0  0  0  0  0
    8.0507   -2.2686    4.1195 H   0  0  0  0  0  0  0  0  0  0  0  0
    5.6533   -2.2658    4.8761 H   0  0  0  0  0  0  0  0  0  0  0  0
    3.9006   -1.1394    3.4585 H   0  0  0  0  0  0  0  0  0  0  0  0
  1  2  1  0
  1 27  1  0
  1 28  1  0
  1 29  1  0
  2  3  2  0
  2  4  1  0
  4  5  1  0
  4 17  1  0
  5  6  2  0
  5 16  1  0
  6  7  1  0
  6 30  1  0
  7  8  2  0
  7 31  1  0
  8  9  1  0
  8 15  1  0
  9 10  1  0
  9 14  1  0
 10 11  1  0
 10 32  1  0
 10 33  1  0
 11 12  1  0
 11 34  1  0
 11 35  1  0
 12 13  1  0
 13 14  1  0
 13 36  1  0
 13 37  1  0
 14 38  1  0
 14 39  1  0
 15 16  2  0
 15 40  1  0
 16 41  1  0
 17 18  2  0
 17 26  1  0
 18 19  1  0
 18 20  1  0
 19 42  1  0
 19 43  1  0
 19 44  1  0
 20 21  2  0
 21 22  1  0
 21 26  1  0
 22 23  2  0
 22 45  1  0
 23 24  1  0
 23 46  1  0
 24 25  2  0
 24 47  1  0
 25 26  1  0
 25 48  1  0
M  END

