
     RDKit          3D

 74 82  0  0  0  0  0  0  0  0999 V2000
    1.5906    0.2907    1.4039 N   0  0  0  0  0  0  0  0  0  0  0  0
    2.7083    0.2647    1.0681 C   0  0  0  0  0  0  0  0  0  0  0  0
    4.0739    0.2240    0.6838 C   0  0  0  0  0  0  0  0  0  0  0  0
    4.7068    1.3870    0.3837 N   0  0  0  0  0  0  0  0  0  0  0  0
    5.9940    1.3884    0.1103 C   0  0  0  0  0  0  0  0  0  0  0  0
    6.5181    2.6725   -0.4361 C   0  0  0  0  0  0  0  0  0  0  0  0
    6.0078    3.8959    0.0376 C   0  0  0  0  0  0  0  0  0  0  0  0
    6.4509    5.1097   -0.4861 C   0  0  0  0  0  0  0  0  0  0  0  0
    7.4085    5.1307   -1.5102 C   0  0  0  0  0  0  0  0  0  0  0  0
    7.8817    6.3737   -2.0434 N   0  0  0  0  0  0  0  0  0  0  0  0
    8.9952    7.0111   -1.4706 C   0  0  0  0  0  0  0  0  0  0  0  0
    9.6555    6.5182   -0.3355 C   0  0  0  0  0  0  0  0  0  0  0  0
   10.7627    7.1873    0.2030 C   0  0  0  0  0  0  0  0  0  0  0  0
   11.2309    8.3612   -0.3826 C   0  0  0  0  0  0  0  0  0  0  0  0
   10.5814    8.8661   -1.5170 C   0  0  0  0  0  0  0  0  0  0  0  0
    9.4829    8.2031   -2.0531 C   0  0  0  0  0  0  0  0  0  0  0  0
    8.8987    8.7500   -3.1686 O   0  0  0  0  0  0  0  0  0  0  0  0
    7.7803    8.1501   -3.7010 C   0  0  0  0  0  0  0  0  0  0  0  0
    7.1905    8.7615   -4.8014 C   0  0  0  0  0  0  0  0  0  0  0  0
    6.0527    8.2006   -5.3961 C   0  0  0  0  0  0  0  0  0  0  0  0
    5.5181    7.0259   -4.8715 C   0  0  0  0  0  0  0  0  0  0  0  0
    6.1110    6.4101   -3.7617 C   0  0  0  0  0  0  0  0  0  0  0  0
    7.2511    6.9589   -3.1582 C   0  0  0  0  0  0  0  0  0  0  0  0
    7.9031    3.9191   -2.0087 C   0  0  0  0  0  0  0  0  0  0  0  0
    7.4650    2.7061   -1.4767 C   0  0  0  0  0  0  0  0  0  0  0  0
    6.7784    0.1679    0.2385 C   0  0  0  0  0  0  0  0  0  0  0  0
    8.2379    0.0670    0.3387 C   0  0  0  0  0  0  0  0  0  0  0  0
    9.0714    1.1381    0.7513 C   0  0  0  0  0  0  0  0  0  0  0  0
   10.4502    0.9844    0.8793 C   0  0  0  0  0  0  0  0  0  0  0  0
   11.0395   -0.2525    0.6039 C   0  0  0  0  0  0  0  0  0  0  0  0
   12.4817   -0.4204    0.7496 N   0  0  0  0  0  0  0  0  0  0  0  0
   13.0143   -0.8181    1.9627 C   0  0  0  0  0  0  0  0  0  0  0  0
   12.2136   -1.0796    3.0983 C   0  0  0  0  0  0  0  0  0  0  0  0
   12.8059   -1.4748    4.2859 C   0  0  0  0  0  0  0  0  0  0  0  0
   14.2054   -1.6234    4.3888 C   0  0  0  0  0  0  0  0  0  0  0  0
   15.0145   -1.3733    3.2888 C   0  0  0  0  0  0  0  0  0  0  0  0
   14.4238   -0.9752    2.0873 C   0  0  0  0  0  0  0  0  0  0  0  0
   15.2419   -0.7407    1.0328 O   0  0  0  0  0  0  0  0  0  0  0  0
   14.7260   -0.3556   -0.1599 C   0  0  0  0  0  0  0  0  0  0  0  0
   15.6197   -0.1324   -1.2100 C   0  0  0  0  0  0  0  0  0  0  0  0
   15.1250    0.2633   -2.4453 C   0  0  0  0  0  0  0  0  0  0  0  0
   13.7367    0.4353   -2.6290 C   0  0  0  0  0  0  0  0  0  0  0  0
   12.8453    0.2160   -1.5922 C   0  0  0  0  0  0  0  0  0  0  0  0
   13.3224   -0.1871   -0.3243 C   0  0  0  0  0  0  0  0  0  0  0  0
   10.2463   -1.3401    0.2125 C   0  0  0  0  0  0  0  0  0  0  0  0
    8.8722   -1.1795    0.0899 C   0  0  0  0  0  0  0  0  0  0  0  0
    6.1050   -1.0084    0.3187 N   0  0  0  0  0  0  0  0  0  0  0  0
    4.8056   -1.0121    0.5125 C   0  0  0  0  0  0  0  0  0  0  0  0
    4.1461   -2.2933    0.5503 C   0  0  0  0  0  0  0  0  0  0  0  0
    3.6192   -3.3281    0.5813 N   0  0  0  0  0  0  0  0  0  0  0  0
    5.2472    3.8742    0.8198 H   0  0  0  0  0  0  0  0  0  0  0  0
    6.0555    6.0541   -0.1050 H   0  0  0  0  0  0  0  0  0  0  0  0
    9.2916    5.6032    0.1318 H   0  0  0  0  0  0  0  0  0  0  0  0
   11.2516    6.7798    1.0914 H   0  0  0  0  0  0  0  0  0  0  0  0
   12.0913    8.8901    0.0331 H   0  0  0  0  0  0  0  0  0  0  0  0
   10.9132    9.7834   -2.0078 H   0  0  0  0  0  0  0  0  0  0  0  0
    7.6419    9.6812   -5.1791 H   0  0  0  0  0  0  0  0  0  0  0  0
    5.5944    8.6860   -6.2604 H   0  0  0  0  0  0  0  0  0  0  0  0
    4.6299    6.5740   -5.3191 H   0  0  0  0  0  0  0  0  0  0  0  0
    5.6834    5.4925   -3.3571 H   0  0  0  0  0  0  0  0  0  0  0  0
    8.6307    3.9367   -2.8233 H   0  0  0  0  0  0  0  0  0  0  0  0
    7.8473    1.7693   -1.8862 H   0  0  0  0  0  0  0  0  0  0  0  0
    8.6326    2.1032    1.0012 H   0  0  0  0  0  0  0  0  0  0  0  0
   11.0632    1.8276    1.2074 H   0  0  0  0  0  0  0  0  0  0  0  0
   11.1345   -0.9664    3.0204 H   0  0  0  0  0  0  0  0  0  0  0  0
   12.1760   -1.6742    5.1545 H   0  0  0  0  0  0  0  0  0  0  0  0
   14.6541   -1.9355    5.3333 H   0  0  0  0  0  0  0  0  0  0  0  0
   16.0997   -1.4771    3.3273 H   0  0  0  0  0  0  0  0  0  0  0  0
   16.6855   -0.2760   -1.0276 H   0  0  0  0  0  0  0  0  0  0  0  0
   15.8123    0.4415   -3.2739 H   0  0  0  0  0  0  0  0  0  0  0  0
   13.3553    0.7467   -3.6029 H   0  0  0  0  0  0  0  0  0  0  0  0
   11.7751    0.3484   -1.7339 H   0  0  0  0  0  0  0  0  0  0  0  0
   10.7040   -2.3109    0.0060 H   0  0  0  0  0  0  0  0  0  0  0  0
    8.2447   -2.0238   -0.1958 H   0  0  0  0  0  0  0  0  0  0  0  0
  1  2  3  0
  2  3  1  0
  3  4  2  0
  3 48  1  0
  4  5  1  0
  5  6  1  0
  5 26  2  0
  6  7  2  0
  6 25  1  0
  7  8  1  0
  7 51  1  0
  8  9  2  0
  8 52  1  0
  9 10  1  0
  9 24  1  0
 10 11  1  0
 10 23  1  0
 11 12  2  0
 11 16  1  0
 12 13  1  0
 12 53  1  0
 13 14  2  0
 13 54  1  0
 14 15  1  0
 14 55  1  0
 15 16  2  0
 15 56  1  0
 16 17  1  0
 17 18  1  0
 18 19  2  0
 18 23  1  0
 19 20  1  0
 19 57  1  0
 20 21  2  0
 20 58  1  0
 21 22  1  0
 21 59  1  0
 22 23  2  0
 22 60  1  0
 24 25  2  0
 24 61  1  0
 25 62  1  0
 26 27  1  0
 26 47  1  0
 27 28  2  0
 27 46  1  0
 28 29  1  0
 28 63  1  0
 29 30  2  0
 29 64  1  0
 30 31  1  0
 30 45  1  0
 31 32  1  0
 31 44  1  0
 32 33  2  0
 32 37  1  0
 33 34  1  0
 33 65  1  0
 34 35  2  0
 34 66  1  0
 35 36  1  0
 35 67  1  0
 36 37  2  0
 36 68  1  0
 37 38  1  0
 38 39  1  0
 39 40  2  0
 39 44  1  0
 40 41  1  0
 40 69  1  0
 41 42  2  0
 41 70  1  0
 42 43  1  0
 42 71  1  0
 43 44  2  0
 43 72  1  0
 45 46  2  0
 45 73  1  0
 46 74  1  0
 47 48  2  0
 48 49  1  0
 49 50  3  0
M  END

