
     RDKit          3D

 30 29  0  0  0  0  0  0  0  0999 V2000
    2.1783   -1.8240   -0.6651 C   0  0  0  0  0  0  0  0  0  0  0  0
    2.5651   -0.3985   -0.2595 C   0  0  1  0  0  0  0  0  0  0  0  0
    1.3258    0.4604    0.0186 C   0  0  0  0  0  0  0  0  0  0  0  0
    3.5073   -0.3779    0.9679 C   0  0  0  0  0  0  0  0  0  0  0  0
    4.8339   -1.0805    0.7693 C   0  0  0  0  0  0  0  0  0  0  0  0
    5.5987   -0.6066   -0.1741 O   0  0  0  0  0  0  0  0  0  0  0  0
    5.5520   -1.8285    1.8976 C   0  0  1  0  0  0  0  0  0  0  0  0
    6.0518   -3.2037    1.4230 C   0  0  0  0  0  0  0  0  0  0  0  0
    6.7105   -1.0045    2.5430 C   0  0  1  0  0  0  0  0  0  0  0  0
    6.3195    0.4486    2.8430 C   0  0  0  0  0  0  0  0  0  0  0  0
    7.1991   -1.7356    3.7146 N   0  0  0  0  0  0  0  0  0  0  0  0
    1.5469   -1.8216   -1.5682 H   0  0  0  0  0  0  0  0  0  0  0  0
    1.6082   -2.3213    0.1393 H   0  0  0  0  0  0  0  0  0  0  0  0
    3.0695   -2.4366   -0.8712 H   0  0  0  0  0  0  0  0  0  0  0  0
    3.1174    0.0591   -1.0998 H   0  0  0  0  0  0  0  0  0  0  0  0
    0.7425    0.0531    0.8630 H   0  0  0  0  0  0  0  0  0  0  0  0
    0.6596    0.4910   -0.8586 H   0  0  0  0  0  0  0  0  0  0  0  0
    1.5980    1.4983    0.2708 H   0  0  0  0  0  0  0  0  0  0  0  0
    3.0125   -0.8538    1.8314 H   0  0  0  0  0  0  0  0  0  0  0  0
    3.6857    0.6863    1.2423 H   0  0  0  0  0  0  0  0  0  0  0  0
    4.7799   -1.9788    2.6739 H   0  0  0  0  0  0  0  0  0  0  0  0
    6.7534   -3.0922    0.5814 H   0  0  0  0  0  0  0  0  0  0  0  0
    5.2144   -3.8316    1.0845 H   0  0  0  0  0  0  0  0  0  0  0  0
    6.5766   -3.7055    2.2487 H   0  0  0  0  0  0  0  0  0  0  0  0
    7.5368   -0.9897    1.8102 H   0  0  0  0  0  0  0  0  0  0  0  0
    5.4453    0.4948    3.5163 H   0  0  0  0  0  0  0  0  0  0  0  0
    6.0798    1.0053    1.9244 H   0  0  0  0  0  0  0  0  0  0  0  0
    7.1528    0.9692    3.3429 H   0  0  0  0  0  0  0  0  0  0  0  0
    6.5370   -1.6384    4.4876 H   0  0  0  0  0  0  0  0  0  0  0  0
    8.0776   -1.3342    4.0433 H   0  0  0  0  0  0  0  0  0  0  0  0
  1  2  1  0
  1 12  1  0
  1 13  1  0
  1 14  1  0
  2  3  1  0
  2  4  1  0
  2 15  1  6
  3 16  1  0
  3 17  1  0
  3 18  1  0
  4  5  1  0
  4 19  1  0
  4 20  1  0
  5  6  2  0
  5  7  1  0
  7  8  1  0
  7  9  1  0
  7 21  1  1
  8 22  1  0
  8 23  1  0
  8 24  1  0
  9 10  1  0
  9 11  1  0
  9 25  1  6
 10 26  1  0
 10 27  1  0
 10 28  1  0
 11 29  1  0
 11 30  1  0
M  END

