
     RDKit          3D

 55 58  0  0  0  0  0  0  0  0999 V2000
    0.5449   -1.8015   -2.4581 C   0  0  0  0  0  0  0  0  0  0  0  0
    1.6094   -1.5441   -1.4334 C   0  0  0  0  0  0  0  0  0  0  0  0
    1.5020   -1.5928   -0.0180 C   0  0  0  0  0  0  0  0  0  0  0  0
    2.6519   -1.2982    0.5823 N   0  0  0  0  0  0  0  0  0  0  0  0
    3.5195   -1.0582   -0.4140 N   0  0  0  0  0  0  0  0  0  0  0  0
    4.9023   -0.7225   -0.1161 C   0  0  0  0  0  0  0  0  0  0  0  0
    5.8256   -1.9166    0.1915 C   0  0  2  0  0  0  0  0  0  0  0  0
    5.9693   -2.8934   -0.9865 C   0  0  0  0  0  0  0  0  0  0  0  0
    6.9227   -4.0426   -0.6465 C   0  0  0  0  0  0  0  0  0  0  0  0
    6.5143   -4.7208    0.5816 N   0  0  0  0  0  0  0  0  0  0  0  0
    6.2932   -6.0723    0.5582 C   0  0  0  0  0  0  0  0  0  0  0  0
    6.4031   -6.7471   -0.4507 O   0  0  0  0  0  0  0  0  0  0  0  0
    5.8705   -6.7340    1.8912 C   0  0  0  0  0  0  0  0  0  0  0  0
    5.7656   -8.1635    1.7385 N   0  0  0  0  0  0  0  0  0  0  0  0
    4.5838   -8.7849    1.3311 C   0  0  0  0  0  0  0  0  0  0  0  0
    3.5219   -8.2077    1.2127 O   0  0  0  0  0  0  0  0  0  0  0  0
    4.9182  -10.2631    1.2305 C   0  0  1  0  0  0  0  0  0  0  0  0
    4.1859  -11.1697    0.2483 C   0  0  0  0  0  0  0  0  0  0  0  0
    4.7647  -12.5917    0.3886 C   0  0  0  0  0  0  0  0  0  0  0  0
    6.3003  -12.6375    0.2636 C   0  0  0  0  0  0  0  0  0  0  0  0
    7.0240  -11.6529    1.2087 C   0  0  0  0  0  0  0  0  0  0  0  0
    6.4300  -10.2676    0.9889 C   0  0  2  0  0  0  0  0  0  0  0  0
    6.8614   -9.0586    1.8134 C   0  0  0  0  0  0  0  0  0  0  0  0
    8.0567   -8.5397    1.6930 O   0  0  0  0  0  0  0  0  0  0  0  0
    6.3874   -3.8463    1.7431 C   0  0  0  0  0  0  0  0  0  0  0  0
    5.4284   -2.6817    1.4640 C   0  0  0  0  0  0  0  0  0  0  0  0
    2.9355   -1.1938   -1.6403 C   0  0  0  0  0  0  0  0  0  0  0  0
    0.1593   -2.8328   -2.3936 H   0  0  0  0  0  0  0  0  0  0  0  0
    0.9291   -1.6559   -3.4789 H   0  0  0  0  0  0  0  0  0  0  0  0
   -0.3169   -1.1257   -2.3284 H   0  0  0  0  0  0  0  0  0  0  0  0
    0.6212   -1.8256    0.5819 H   0  0  0  0  0  0  0  0  0  0  0  0
    4.8886   -0.0336    0.7422 H   0  0  0  0  0  0  0  0  0  0  0  0
    5.2976   -0.1697   -0.9825 H   0  0  0  0  0  0  0  0  0  0  0  0
    6.8217   -1.4655    0.3717 H   0  0  0  0  0  0  0  0  0  0  0  0
    6.3445   -2.3658   -1.8807 H   0  0  0  0  0  0  0  0  0  0  0  0
    4.9818   -3.3106   -1.2468 H   0  0  0  0  0  0  0  0  0  0  0  0
    7.9489   -3.6484   -0.5119 H   0  0  0  0  0  0  0  0  0  0  0  0
    6.9517   -4.7950   -1.4436 H   0  0  0  0  0  0  0  0  0  0  0  0
    4.8777   -6.3611    2.1866 H   0  0  0  0  0  0  0  0  0  0  0  0
    6.5880   -6.5074    2.6939 H   0  0  0  0  0  0  0  0  0  0  0  0
    4.7486  -10.6544    2.2558 H   0  0  0  0  0  0  0  0  0  0  0  0
    4.3253  -10.7951   -0.7803 H   0  0  0  0  0  0  0  0  0  0  0  0
    3.1024  -11.1610    0.4490 H   0  0  0  0  0  0  0  0  0  0  0  0
    4.3123  -13.2599   -0.3628 H   0  0  0  0  0  0  0  0  0  0  0  0
    4.4718  -12.9947    1.3753 H   0  0  0  0  0  0  0  0  0  0  0  0
    6.5836  -12.3964   -0.7768 H   0  0  0  0  0  0  0  0  0  0  0  0
    6.6580  -13.6636    0.4502 H   0  0  0  0  0  0  0  0  0  0  0  0
    8.1077  -11.6587    1.0095 H   0  0  0  0  0  0  0  0  0  0  0  0
    6.8845  -11.9543    2.2616 H   0  0  0  0  0  0  0  0  0  0  0  0
    6.6083   -9.9698   -0.0688 H   0  0  0  0  0  0  0  0  0  0  0  0
    7.3889   -3.4486    2.0029 H   0  0  0  0  0  0  0  0  0  0  0  0
    6.0379   -4.4145    2.6127 H   0  0  0  0  0  0  0  0  0  0  0  0
    5.4206   -2.0021    2.3324 H   0  0  0  0  0  0  0  0  0  0  0  0
    4.4015   -3.0654    1.3593 H   0  0  0  0  0  0  0  0  0  0  0  0
    3.4941   -1.0264   -2.5596 H   0  0  0  0  0  0  0  0  0  0  0  0
  1  2  1  0
  1 28  1  0
  1 29  1  0
  1 30  1  0
  2  3  1  0
  2 27  2  0
  3  4  2  0
  3 31  1  0
  4  5  1  0
  5  6  1  0
  5 27  1  0
  6  7  1  0
  6 32  1  0
  6 33  1  0
  7  8  1  0
  7 26  1  0
  7 34  1  1
  8  9  1  0
  8 35  1  0
  8 36  1  0
  9 10  1  0
  9 37  1  0
  9 38  1  0
 10 11  1  0
 10 25  1  0
 11 12  2  0
 11 13  1  0
 13 14  1  0
 13 39  1  0
 13 40  1  0
 14 15  1  0
 14 23  1  0
 15 16  2  0
 15 17  1  0
 17 18  1  0
 17 22  1  0
 17 41  1  1
 18 19  1  0
 18 42  1  0
 18 43  1  0
 19 20  1  0
 19 44  1  0
 19 45  1  0
 20 21  1  0
 20 46  1  0
 20 47  1  0
 21 22  1  0
 21 48  1  0
 21 49  1  0
 22 23  1  0
 22 50  1  6
 23 24  2  0
 25 26  1  0
 25 51  1  0
 25 52  1  0
 26 53  1  0
 26 54  1  0
 27 55  1  0
M  END

