
     RDKit          3D

 29 29  0  0  0  0  0  0  0  0999 V2000
    2.0266    1.0369   -1.7000 C   0  0  0  0  0  0  0  0  0  0  0  0
    2.8612    0.5973   -0.9402 C   0  0  0  0  0  0  0  0  0  0  0  0
    3.8714    0.0614   -0.0215 C   0  0  0  0  0  0  0  0  0  0  0  0
    4.2721   -1.3761   -0.3271 C   0  0  0  0  0  0  0  0  0  0  0  0
    5.4369   -1.6570   -1.0463 C   0  0  0  0  0  0  0  0  0  0  0  0
    5.8119   -2.9706   -1.3643 C   0  0  0  0  0  0  0  0  0  0  0  0
    7.0455   -3.2357   -2.1898 C   0  0  0  0  0  0  0  0  0  0  0  0
    4.9938   -4.0311   -0.9132 C   0  0  0  0  0  0  0  0  0  0  0  0
    5.3433   -5.3768   -1.2132 N   0  0  0  0  0  0  0  0  0  0  0  0
    6.3604   -6.1419   -0.6517 C   0  0  0  0  0  0  0  0  0  0  0  0
    7.1780   -5.4788    0.2368 N   0  0  0  0  0  0  0  0  0  0  0  0
    6.5196   -7.3106   -0.9546 O   0  0  0  0  0  0  0  0  0  0  0  0
    3.8048   -3.7695   -0.1926 C   0  0  0  0  0  0  0  0  0  0  0  0
    2.9245   -4.9050    0.2675 C   0  0  0  0  0  0  0  0  0  0  0  0
    3.4622   -2.4413    0.0836 C   0  0  0  0  0  0  0  0  0  0  0  0
    1.2878    1.4216   -2.3775 H   0  0  0  0  0  0  0  0  0  0  0  0
    3.4825    0.1257    1.0100 H   0  0  0  0  0  0  0  0  0  0  0  0
    4.7638    0.7092   -0.0530 H   0  0  0  0  0  0  0  0  0  0  0  0
    6.0660   -0.8321   -1.3938 H   0  0  0  0  0  0  0  0  0  0  0  0
    7.4253   -2.3072   -2.6395 H   0  0  0  0  0  0  0  0  0  0  0  0
    6.8311   -3.9554   -2.9953 H   0  0  0  0  0  0  0  0  0  0  0  0
    7.8511   -3.6811   -1.5840 H   0  0  0  0  0  0  0  0  0  0  0  0
    4.6794   -5.9491   -1.7247 H   0  0  0  0  0  0  0  0  0  0  0  0
    6.8676   -4.6264    0.6876 H   0  0  0  0  0  0  0  0  0  0  0  0
    7.8209   -6.0705    0.7475 H   0  0  0  0  0  0  0  0  0  0  0  0
    2.4577   -5.4317   -0.5834 H   0  0  0  0  0  0  0  0  0  0  0  0
    2.1121   -4.5400    0.9118 H   0  0  0  0  0  0  0  0  0  0  0  0
    3.4980   -5.6614    0.8270 H   0  0  0  0  0  0  0  0  0  0  0  0
    2.5421   -2.2352    0.6384 H   0  0  0  0  0  0  0  0  0  0  0  0
  1  2  3  0
  1 16  1  0
  2  3  1  0
  3  4  1  0
  3 17  1  0
  3 18  1  0
  4  5  2  0
  4 15  1  0
  5  6  1  0
  5 19  1  0
  6  7  1  0
  6  8  2  0
  7 20  1  0
  7 21  1  0
  7 22  1  0
  8  9  1  0
  8 13  1  0
  9 10  1  0
  9 23  1  0
 10 11  1  0
 10 12  2  0
 11 24  1  0
 11 25  1  0
 13 14  1  0
 13 15  2  0
 14 26  1  0
 14 27  1  0
 14 28  1  0
 15 29  1  0
M  END

