
     RDKit          3D

 68 71  0  0  0  0  0  0  0  0999 V2000
    5.4054   -6.2215    1.7282 C   0  0  0  0  0  0  0  0  0  0  0  0
    5.4670   -5.3416    0.6095 O   0  0  0  0  0  0  0  0  0  0  0  0
    5.4488   -4.0278    0.8664 C   0  0  0  0  0  0  0  0  0  0  0  0
    5.3938   -3.5759    1.9894 O   0  0  0  0  0  0  0  0  0  0  0  0
    5.5384   -3.1752   -0.3629 C   0  0  0  0  0  0  0  0  0  0  0  0
    5.7335   -1.7997   -0.1448 C   0  0  0  0  0  0  0  0  0  0  0  0
    5.8673   -0.9047   -1.2031 C   0  0  0  0  0  0  0  0  0  0  0  0
    5.8045   -1.3786   -2.5175 C   0  0  0  0  0  0  0  0  0  0  0  0
    5.5988   -2.7368   -2.7584 C   0  0  0  0  0  0  0  0  0  0  0  0
    5.4633   -3.6337   -1.6953 C   0  0  0  0  0  0  0  0  0  0  0  0
    5.3298   -4.9656   -2.0198 O   0  0  0  0  0  0  0  0  0  0  0  0
    4.1163   -5.5725   -1.9272 C   0  0  0  0  0  0  0  0  0  0  0  0
    3.0572   -4.8513   -1.6987 N   0  0  0  0  0  0  0  0  0  0  0  0
    1.8523   -5.5045   -1.6442 C   0  0  0  0  0  0  0  0  0  0  0  0
    0.7865   -4.6961   -1.3856 N   0  0  0  0  0  0  0  0  0  0  0  0
   -0.5659   -4.9305   -1.2568 C   0  0  0  0  0  0  0  0  0  0  0  0
   -1.2011   -6.1948   -1.3973 C   0  0  0  0  0  0  0  0  0  0  0  0
   -2.5618   -6.2930   -1.2439 C   0  0  0  0  0  0  0  0  0  0  0  0
   -3.1013   -7.5510   -1.4090 F   0  0  0  0  0  0  0  0  0  0  0  0
   -3.4256   -5.2035   -0.9459 C   0  0  0  0  0  0  0  0  0  0  0  0
   -4.8585   -5.2276   -0.7560 C   0  0  0  0  0  0  0  0  0  0  0  0
   -5.5390   -4.2172   -0.5191 O   0  0  0  0  0  0  0  0  0  0  0  0
   -5.5160   -6.4963   -0.8076 N   0  0  0  0  0  0  0  0  0  0  0  0
   -6.9224   -6.5827   -1.1545 C   0  0  1  0  0  0  0  0  0  0  0  0
   -7.3295   -8.0645   -1.1667 C   0  0  0  0  0  0  0  0  0  0  0  0
   -7.1601   -8.7141    0.2087 C   0  0  0  0  0  0  0  0  0  0  0  0
   -7.6650   -7.9049    1.3170 N   0  0  0  0  0  0  0  0  0  0  0  0
   -8.0233   -8.5598    2.5492 C   0  0  0  0  0  0  0  0  0  0  0  0
   -7.6473   -6.4437    1.2658 C   0  0  0  0  0  0  0  0  0  0  0  0
   -7.8323   -5.8761   -0.1351 C   0  0  0  0  0  0  0  0  0  0  0  0
   -2.7591   -3.9286   -0.8127 C   0  0  0  0  0  0  0  0  0  0  0  0
   -1.3991   -3.7978   -0.9616 C   0  0  0  0  0  0  0  0  0  0  0  0
   -0.7089   -2.6160   -0.8490 O   0  0  0  0  0  0  0  0  0  0  0  0
   -1.4194   -1.4384   -0.5624 C   0  0  0  0  0  0  0  0  0  0  0  0
    1.6897   -6.8344   -1.8294 N   0  0  0  0  0  0  0  0  0  0  0  0
    2.7852   -7.5375   -2.0567 C   0  0  0  0  0  0  0  0  0  0  0  0
    4.0810   -6.9809   -2.1202 C   0  0  0  0  0  0  0  0  0  0  0  0
    5.2977   -7.8109   -2.3073 C   0  0  1  0  0  0  0  0  0  0  0  0
    6.1154   -7.8194   -1.2197 F   0  0  0  0  0  0  0  0  0  0  0  0
    4.9771   -9.1051   -2.5421 F   0  0  0  0  0  0  0  0  0  0  0  0
    6.0725   -7.4115   -3.3389 F   0  0  0  0  0  0  0  0  0  0  0  0
    4.4545   -6.0984    2.2695 H   0  0  0  0  0  0  0  0  0  0  0  0
    6.2320   -6.0225    2.4271 H   0  0  0  0  0  0  0  0  0  0  0  0
    5.4854   -7.2325    1.3124 H   0  0  0  0  0  0  0  0  0  0  0  0
    5.7817   -1.4608    0.8916 H   0  0  0  0  0  0  0  0  0  0  0  0
    6.0238    0.1582   -1.0051 H   0  0  0  0  0  0  0  0  0  0  0  0
    5.9111   -0.6896   -3.3594 H   0  0  0  0  0  0  0  0  0  0  0  0
    5.5385   -3.1325   -3.7738 H   0  0  0  0  0  0  0  0  0  0  0  0
    1.0471   -3.7217   -1.2618 H   0  0  0  0  0  0  0  0  0  0  0  0
   -0.6043   -7.0732   -1.6291 H   0  0  0  0  0  0  0  0  0  0  0  0
   -4.9424   -7.1982   -1.2654 H   0  0  0  0  0  0  0  0  0  0  0  0
   -7.1498   -6.1511   -2.1496 H   0  0  0  0  0  0  0  0  0  0  0  0
   -6.7273   -8.6457   -1.8810 H   0  0  0  0  0  0  0  0  0  0  0  0
   -8.3775   -8.1547   -1.4942 H   0  0  0  0  0  0  0  0  0  0  0  0
   -6.0929   -8.8653    0.4397 H   0  0  0  0  0  0  0  0  0  0  0  0
   -7.6482   -9.6985    0.2703 H   0  0  0  0  0  0  0  0  0  0  0  0
   -7.4917   -9.5142    2.6476 H   0  0  0  0  0  0  0  0  0  0  0  0
   -9.1092   -8.7650    2.5324 H   0  0  0  0  0  0  0  0  0  0  0  0
   -7.8087   -7.9073    3.4044 H   0  0  0  0  0  0  0  0  0  0  0  0
   -6.6602   -6.1547    1.6646 H   0  0  0  0  0  0  0  0  0  0  0  0
   -8.4051   -6.0822    1.9768 H   0  0  0  0  0  0  0  0  0  0  0  0
   -7.5730   -4.8130   -0.1001 H   0  0  0  0  0  0  0  0  0  0  0  0
   -8.8844   -5.9832   -0.4489 H   0  0  0  0  0  0  0  0  0  0  0  0
   -3.3954   -3.0748   -0.5901 H   0  0  0  0  0  0  0  0  0  0  0  0
   -0.6819   -0.6250   -0.5154 H   0  0  0  0  0  0  0  0  0  0  0  0
   -1.9466   -1.5040    0.4071 H   0  0  0  0  0  0  0  0  0  0  0  0
   -2.1633   -1.2072   -1.3467 H   0  0  0  0  0  0  0  0  0  0  0  0
    2.6606   -8.6152   -2.2011 H   0  0  0  0  0  0  0  0  0  0  0  0
  1  2  1  0
  1 42  1  0
  1 43  1  0
  1 44  1  0
  2  3  1  0
  3  4  2  0
  3  5  1  0
  5  6  2  0
  5 10  1  0
  6  7  1  0
  6 45  1  0
  7  8  2  0
  7 46  1  0
  8  9  1  0
  8 47  1  0
  9 10  2  0
  9 48  1  0
 10 11  1  0
 11 12  1  0
 12 13  2  0
 12 37  1  0
 13 14  1  0
 14 15  1  0
 14 35  2  0
 15 16  1  0
 15 49  1  0
 16 17  2  0
 16 32  1  0
 17 18  1  0
 17 50  1  0
 18 19  1  0
 18 20  2  0
 20 21  1  0
 20 31  1  0
 21 22  2  0
 21 23  1  0
 23 24  1  0
 23 51  1  0
 24 25  1  0
 24 30  1  0
 24 52  1  6
 25 26  1  0
 25 53  1  0
 25 54  1  0
 26 27  1  0
 26 55  1  0
 26 56  1  0
 27 28  1  0
 27 29  1  0
 28 57  1  0
 28 58  1  0
 28 59  1  0
 29 30  1  0
 29 60  1  0
 29 61  1  0
 30 62  1  0
 30 63  1  0
 31 32  2  0
 31 64  1  0
 32 33  1  0
 33 34  1  0
 34 65  1  0
 34 66  1  0
 34 67  1  0
 35 36  1  0
 36 37  2  0
 36 68  1  0
 37 38  1  0
 38 39  1  1
 38 40  1  0
 38 41  1  0
M  END

