
     RDKit          3D

 60 63  0  0  0  0  0  0  0  0999 V2000
    6.5843   -0.4569    0.1325 C   0  0  0  0  0  0  0  0  0  0  0  0
    5.4453   -1.2768    0.2590 O   0  0  0  0  0  0  0  0  0  0  0  0
    4.5871   -1.0773    1.2983 C   0  0  0  0  0  0  0  0  0  0  0  0
    4.7478   -0.0648    2.2491 C   0  0  0  0  0  0  0  0  0  0  0  0
    3.8500    0.0625    3.3180 C   0  0  0  0  0  0  0  0  0  0  0  0
    2.7830   -0.8221    3.4327 C   0  0  0  0  0  0  0  0  0  0  0  0
    2.6049   -1.8251    2.4714 C   0  0  0  0  0  0  0  0  0  0  0  0
    3.4867   -1.9808    1.3909 C   0  0  0  0  0  0  0  0  0  0  0  0
    3.3515   -3.0186    0.4443 N   0  0  0  0  0  0  0  0  0  0  0  0
    3.1567   -2.6434   -0.9591 C   0  0  0  0  0  0  0  0  0  0  0  0
    3.4911   -3.8121   -1.8799 C   0  0  0  0  0  0  0  0  0  0  0  0
    2.7291   -5.0017   -1.5083 N   0  0  0  0  0  0  0  0  0  0  0  0
    2.0505   -5.7011   -2.4840 C   0  0  0  0  0  0  0  0  0  0  0  0
    2.0603   -5.3220   -3.6488 O   0  0  0  0  0  0  0  0  0  0  0  0
    1.2665   -6.9531   -2.0588 C   0  0  1  0  0  0  0  0  0  0  0  0
   -0.0791   -6.5805   -1.3784 C   0  0  0  0  0  0  0  0  0  0  0  0
   -1.1427   -6.1391   -2.4014 C   0  0  0  0  0  0  0  0  0  0  0  0
   -1.3685   -7.1161   -3.4597 N   0  0  0  0  0  0  0  0  0  0  0  0
   -2.1833   -8.2679   -3.0934 C   0  0  0  0  0  0  0  0  0  0  0  0
   -3.6604   -7.9202   -3.0206 C   0  0  0  0  0  0  0  0  0  0  0  0
   -4.4045   -7.6755   -4.1941 C   0  0  0  0  0  0  0  0  0  0  0  0
   -3.6376   -7.8251   -5.7614 Cl  0  0  0  0  0  0  0  0  0  0  0  0
   -5.7586   -7.3353   -4.1710 C   0  0  0  0  0  0  0  0  0  0  0  0
   -6.4165   -7.2264   -2.9453 C   0  0  0  0  0  0  0  0  0  0  0  0
   -5.7263   -7.4634   -1.7583 C   0  0  0  0  0  0  0  0  0  0  0  0
   -4.3707   -7.8037   -1.8115 C   0  0  0  0  0  0  0  0  0  0  0  0
   -3.5673   -8.0906   -0.2699 Cl  0  0  0  0  0  0  0  0  0  0  0  0
   -0.1288   -7.4121   -4.1723 C   0  0  0  0  0  0  0  0  0  0  0  0
    1.0114   -7.8960   -3.2571 C   0  0  0  0  0  0  0  0  0  0  0  0
    2.8878   -5.3638   -0.1073 C   0  0  0  0  0  0  0  0  0  0  0  0
    2.5595   -4.1792    0.8092 C   0  0  0  0  0  0  0  0  0  0  0  0
    7.1311   -0.8159   -0.7500 H   0  0  0  0  0  0  0  0  0  0  0  0
    7.2435   -0.5310    1.0162 H   0  0  0  0  0  0  0  0  0  0  0  0
    6.3161    0.6041   -0.0208 H   0  0  0  0  0  0  0  0  0  0  0  0
    5.5894    0.6241    2.1764 H   0  0  0  0  0  0  0  0  0  0  0  0
    3.9994    0.8549    4.0552 H   0  0  0  0  0  0  0  0  0  0  0  0
    2.0756   -0.7349    4.2607 H   0  0  0  0  0  0  0  0  0  0  0  0
    1.7503   -2.4965    2.5637 H   0  0  0  0  0  0  0  0  0  0  0  0
    3.8093   -1.7970   -1.2001 H   0  0  0  0  0  0  0  0  0  0  0  0
    2.1044   -2.3290   -1.1332 H   0  0  0  0  0  0  0  0  0  0  0  0
    4.5729   -4.0298   -1.8023 H   0  0  0  0  0  0  0  0  0  0  0  0
    3.2552   -3.5759   -2.9243 H   0  0  0  0  0  0  0  0  0  0  0  0
    1.8805   -7.5039   -1.3283 H   0  0  0  0  0  0  0  0  0  0  0  0
    0.0622   -5.7829   -0.6303 H   0  0  0  0  0  0  0  0  0  0  0  0
   -0.4493   -7.4596   -0.8244 H   0  0  0  0  0  0  0  0  0  0  0  0
   -0.8260   -5.1929   -2.8746 H   0  0  0  0  0  0  0  0  0  0  0  0
   -2.0923   -5.9316   -1.8837 H   0  0  0  0  0  0  0  0  0  0  0  0
   -1.8883   -8.7513   -2.1435 H   0  0  0  0  0  0  0  0  0  0  0  0
   -2.0572   -9.0229   -3.8836 H   0  0  0  0  0  0  0  0  0  0  0  0
   -6.2836   -7.1623   -5.1113 H   0  0  0  0  0  0  0  0  0  0  0  0
   -7.4753   -6.9587   -2.9163 H   0  0  0  0  0  0  0  0  0  0  0  0
   -6.2230   -7.3865   -0.7904 H   0  0  0  0  0  0  0  0  0  0  0  0
    0.2018   -6.4948   -4.6814 H   0  0  0  0  0  0  0  0  0  0  0  0
   -0.3384   -8.1629   -4.9512 H   0  0  0  0  0  0  0  0  0  0  0  0
    1.9342   -8.0116   -3.8470 H   0  0  0  0  0  0  0  0  0  0  0  0
    0.7616   -8.8936   -2.8540 H   0  0  0  0  0  0  0  0  0  0  0  0
    3.9354   -5.6707    0.0775 H   0  0  0  0  0  0  0  0  0  0  0  0
    2.2406   -6.2077    0.1540 H   0  0  0  0  0  0  0  0  0  0  0  0
    2.7893   -4.4625    1.8476 H   0  0  0  0  0  0  0  0  0  0  0  0
    1.4657   -3.9785    0.7506 H   0  0  0  0  0  0  0  0  0  0  0  0
  1  2  1  0
  1 32  1  0
  1 33  1  0
  1 34  1  0
  2  3  1  0
  3  4  2  0
  3  8  1  0
  4  5  1  0
  4 35  1  0
  5  6  2  0
  5 36  1  0
  6  7  1  0
  6 37  1  0
  7  8  2  0
  7 38  1  0
  8  9  1  0
  9 10  1  0
  9 31  1  0
 10 11  1  0
 10 39  1  0
 10 40  1  0
 11 12  1  0
 11 41  1  0
 11 42  1  0
 12 13  1  0
 12 30  1  0
 13 14  2  0
 13 15  1  0
 15 16  1  0
 15 29  1  0
 15 43  1  1
 16 17  1  0
 16 44  1  0
 16 45  1  0
 17 18  1  0
 17 46  1  0
 17 47  1  0
 18 19  1  0
 18 28  1  0
 19 20  1  0
 19 48  1  0
 19 49  1  0
 20 21  2  0
 20 26  1  0
 21 22  1  0
 21 23  1  0
 23 24  2  0
 23 50  1  0
 24 25  1  0
 24 51  1  0
 25 26  2  0
 25 52  1  0
 26 27  1  0
 28 29  1  0
 28 53  1  0
 28 54  1  0
 29 55  1  0
 29 56  1  0
 30 31  1  0
 30 57  1  0
 30 58  1  0
 31 59  1  0
 31 60  1  0
M  END

