
     RDKit          3D

 80 85  0  0  0  0  0  0  0  0999 V2000
    5.5492   -2.6138   -5.9191 C   0  0  0  0  0  0  0  0  0  0  0  0
    6.4273   -1.7581   -5.1389 N   0  0  0  0  0  0  0  0  0  0  0  0
    7.1771   -0.8147   -5.9485 C   0  0  0  0  0  0  0  0  0  0  0  0
    5.8945   -1.2621   -3.8825 C   0  0  2  0  0  0  0  0  0  0  0  0
    5.2314   -2.0586   -3.4942 H   0  0  0  0  0  0  0  0  0  0  0  0
    4.9570   -0.0429   -4.0404 C   0  0  0  0  0  0  0  0  0  0  0  0
    4.3508    0.1035   -5.1092 O   0  0  0  0  0  0  0  0  0  0  0  0
    4.8145    0.8773   -2.9273 C   0  0  0  0  0  0  0  0  0  0  0  0
    3.9532    2.0282   -3.0231 C   0  0  0  0  0  0  0  0  0  0  0  0
    3.2419    2.2712   -4.1139 N   0  0  0  0  0  0  0  0  0  0  0  0
    3.8516    2.8659   -2.0300 O   0  0  0  0  0  0  0  0  0  0  0  0
    5.5206    0.6973   -1.7064 C   0  0  0  0  0  0  0  0  0  0  0  0
    5.4816    1.5167   -0.7567 O   0  0  0  0  0  0  0  0  0  0  0  0
    6.4016   -0.5372   -1.4948 C   0  0  1  0  0  0  0  0  0  0  0  0
    7.4366   -0.1751   -0.6020 O   0  0  0  0  0  0  0  0  0  0  0  0
    5.5632   -1.6802   -0.8739 C   0  0  0  0  0  0  0  0  0  0  0  0
    4.3641   -1.5109   -0.5583 O   0  0  0  0  0  0  0  0  0  0  0  0
    6.2372   -2.9436   -0.8058 C   0  0  0  0  0  0  0  0  0  0  0  0
    5.4641   -4.0780   -0.6192 C   0  0  0  0  0  0  0  0  0  0  0  0
    4.1790   -3.9607   -0.2723 O   0  0  0  0  0  0  0  0  0  0  0  0
    5.9614   -5.4182   -0.9090 C   0  0  0  0  0  0  0  0  0  0  0  0
    5.1046   -6.5536   -0.9590 C   0  0  0  0  0  0  0  0  0  0  0  0
    3.7964   -6.5068   -0.6596 O   0  0  0  0  0  0  0  0  0  0  0  0
    5.6279   -7.7958   -1.3500 C   0  0  0  0  0  0  0  0  0  0  0  0
    6.9698   -7.9477   -1.6916 C   0  0  0  0  0  0  0  0  0  0  0  0
    7.5426   -9.3003   -2.0697 C   0  0  0  0  0  0  0  0  0  0  0  0
    6.6270  -10.1328   -2.8396 N   0  0  0  0  0  0  0  0  0  0  0  0
    6.5134   -9.6650   -4.2205 C   0  0  0  0  0  0  0  0  0  0  0  0
    5.3344  -10.2445   -4.9783 C   0  0  0  0  0  0  0  0  0  0  0  0
    4.0413  -10.2097   -4.4299 C   0  0  0  0  0  0  0  0  0  0  0  0
    2.9499  -10.7097   -5.1435 C   0  0  0  0  0  0  0  0  0  0  0  0
    3.1309  -11.2532   -6.4206 C   0  0  0  0  0  0  0  0  0  0  0  0
    4.4117  -11.2934   -6.9761 C   0  0  0  0  0  0  0  0  0  0  0  0
    5.5035  -10.7949   -6.2567 C   0  0  0  0  0  0  0  0  0  0  0  0
    6.9483  -11.5592   -2.7563 C   0  0  0  0  0  0  0  0  0  0  0  0
    6.6543  -12.1902   -1.4106 C   0  0  1  0  0  0  0  0  0  0  0  0
    5.2381  -12.5462   -1.0417 C   0  0  0  0  0  0  0  0  0  0  0  0
    6.2321  -13.6384   -1.3472 C   0  0  0  0  0  0  0  0  0  0  0  0
    7.7944   -6.8123   -1.6238 C   0  0  0  0  0  0  0  0  0  0  0  0
    9.1090   -6.9517   -1.9198 F   0  0  0  0  0  0  0  0  0  0  0  0
    7.3344   -5.5596   -1.2438 C   0  0  0  0  0  0  0  0  0  0  0  0
    8.2973   -4.4048   -1.0877 C   0  0  0  0  0  0  0  0  0  0  0  0
    7.6894   -2.9931   -1.2187 C   0  0  1  0  0  0  0  0  0  0  0  0
    8.2379   -2.3458   -0.5221 H   0  0  0  0  0  0  0  0  0  0  0  0
    7.8508   -2.3539   -2.6184 C   0  0  0  0  0  0  0  0  0  0  0  0
    7.0121   -1.0555   -2.8198 C   0  0  1  0  0  0  0  0  0  0  0  0
    7.6791   -0.2475   -3.1601 H   0  0  0  0  0  0  0  0  0  0  0  0
    6.1431   -3.1580   -6.6734 H   0  0  0  0  0  0  0  0  0  0  0  0
    4.7431   -2.0652   -6.4437 H   0  0  0  0  0  0  0  0  0  0  0  0
    5.0809   -3.3663   -5.2643 H   0  0  0  0  0  0  0  0  0  0  0  0
    7.7621   -1.3656   -6.7036 H   0  0  0  0  0  0  0  0  0  0  0  0
    7.8949   -0.2549   -5.3287 H   0  0  0  0  0  0  0  0  0  0  0  0
    6.5398   -0.0803   -6.4820 H   0  0  0  0  0  0  0  0  0  0  0  0
    3.3547    1.5898   -4.8776 H   0  0  0  0  0  0  0  0  0  0  0  0
    2.6439    3.0880   -4.1523 H   0  0  0  0  0  0  0  0  0  0  0  0
    4.4818    2.5125   -1.2968 H   0  0  0  0  0  0  0  0  0  0  0  0
    7.0556    0.5401   -0.0585 H   0  0  0  0  0  0  0  0  0  0  0  0
    3.9784   -2.9523   -0.2614 H   0  0  0  0  0  0  0  0  0  0  0  0
    3.5612   -5.5887   -0.4215 H   0  0  0  0  0  0  0  0  0  0  0  0
    4.9596   -8.6561   -1.3914 H   0  0  0  0  0  0  0  0  0  0  0  0
    7.7836   -9.8272   -1.1320 H   0  0  0  0  0  0  0  0  0  0  0  0
    8.5121   -9.1554   -2.5904 H   0  0  0  0  0  0  0  0  0  0  0  0
    7.4476   -9.8595   -4.7952 H   0  0  0  0  0  0  0  0  0  0  0  0
    6.4018   -8.5679   -4.1869 H   0  0  0  0  0  0  0  0  0  0  0  0
    3.8971   -9.7864   -3.4336 H   0  0  0  0  0  0  0  0  0  0  0  0
    1.9504  -10.6725   -4.7020 H   0  0  0  0  0  0  0  0  0  0  0  0
    2.2760  -11.6443   -6.9783 H   0  0  0  0  0  0  0  0  0  0  0  0
    4.5655  -11.7185   -7.9715 H   0  0  0  0  0  0  0  0  0  0  0  0
    6.5050  -10.8347   -6.6956 H   0  0  0  0  0  0  0  0  0  0  0  0
    8.0129  -11.7465   -3.0309 H   0  0  0  0  0  0  0  0  0  0  0  0
    6.3426  -12.0751   -3.5169 H   0  0  0  0  0  0  0  0  0  0  0  0
    7.2944  -11.8578   -0.5856 H   0  0  0  0  0  0  0  0  0  0  0  0
    4.4596  -12.3399   -1.7824 H   0  0  0  0  0  0  0  0  0  0  0  0
    4.9180  -12.4065   -0.0052 H   0  0  0  0  0  0  0  0  0  0  0  0
    6.1250  -14.1816   -2.2915 H   0  0  0  0  0  0  0  0  0  0  0  0
    6.6064  -14.2518   -0.5227 H   0  0  0  0  0  0  0  0  0  0  0  0
    9.1346   -4.5270   -1.7905 H   0  0  0  0  0  0  0  0  0  0  0  0
    8.7451   -4.5007   -0.0817 H   0  0  0  0  0  0  0  0  0  0  0  0
    7.5635   -3.0703   -3.4027 H   0  0  0  0  0  0  0  0  0  0  0  0
    8.9173   -2.1345   -2.7819 H   0  0  0  0  0  0  0  0  0  0  0  0
  1  2  1  0
  1 48  1  0
  1 49  1  0
  1 50  1  0
  2  3  1  0
  2  4  1  0
  3 51  1  0
  3 52  1  0
  3 53  1  0
  4  5  1  1
  4  6  1  0
  4 46  1  0
  6  7  2  0
  6  8  1  0
  8  9  2  0
  8 12  1  0
  9 10  1  0
  9 11  1  0
 10 54  1  0
 10 55  1  0
 11 56  1  0
 12 13  2  0
 12 14  1  0
 14 15  1  1
 14 16  1  0
 14 46  1  0
 15 57  1  0
 16 17  2  0
 16 18  1  0
 18 19  2  0
 18 43  1  0
 19 20  1  0
 19 21  1  0
 20 58  1  0
 21 22  2  0
 21 41  1  0
 22 23  1  0
 22 24  1  0
 23 59  1  0
 24 25  2  0
 24 60  1  0
 25 26  1  0
 25 39  1  0
 26 27  1  0
 26 61  1  0
 26 62  1  0
 27 28  1  0
 27 35  1  0
 28 29  1  0
 28 63  1  0
 28 64  1  0
 29 30  2  0
 29 34  1  0
 30 31  1  0
 30 65  1  0
 31 32  2  0
 31 66  1  0
 32 33  1  0
 32 67  1  0
 33 34  2  0
 33 68  1  0
 34 69  1  0
 35 36  1  0
 35 70  1  0
 35 71  1  0
 36 37  1  0
 36 38  1  0
 36 72  1  1
 37 38  1  0
 37 73  1  0
 37 74  1  0
 38 75  1  0
 38 76  1  0
 39 40  1  0
 39 41  2  0
 41 42  1  0
 42 43  1  0
 42 77  1  0
 42 78  1  0
 43 44  1  1
 43 45  1  0
 45 46  1  0
 45 79  1  0
 45 80  1  0
 46 47  1  6
M  END

