
     RDKit          3D

 34 35  0  0  0  0  0  0  0  0999 V2000
    1.0851    0.7572    0.3359 C   0  0  0  0  0  0  0  0  0  0  0  0
    2.3979    0.0730    0.1226 C   0  0  0  0  0  0  0  0  0  0  0  0
    3.3774    0.6526   -0.5500 N   0  0  0  0  0  0  0  0  0  0  0  0
    4.4072   -0.2119   -0.5623 N   0  0  0  0  0  0  0  0  0  0  0  0
    5.6470    0.1375   -1.2033 C   0  0  0  0  0  0  0  0  0  0  0  0
    4.1149   -1.3780    0.1098 C   0  0  0  0  0  0  0  0  0  0  0  0
    2.7858   -1.2473    0.5874 C   0  0  0  0  0  0  0  0  0  0  0  0
    1.9599   -2.1131    1.3329 C   0  0  0  0  0  0  0  0  0  0  0  0
    0.8024   -2.0165    1.8019 O   0  0  0  0  0  0  0  0  0  0  0  0
    2.6284   -3.4252    1.7684 N   0  0  0  0  0  0  0  0  0  0  0  0
    2.4516   -4.6103    1.2055 C   0  0  0  0  0  0  0  0  0  0  0  0
    1.8663   -4.7641   -0.0954 C   0  0  0  0  0  0  0  0  0  0  0  0
    1.7261   -6.0318   -0.6054 C   0  0  0  0  0  0  0  0  0  0  0  0
    2.1513   -7.1537    0.1560 C   0  0  0  0  0  0  0  0  0  0  0  0
    1.9876   -8.5590   -0.3497 C   0  0  0  0  0  0  0  0  0  0  0  0
    2.6609   -8.8307   -1.7032 C   0  0  0  0  0  0  0  0  0  0  0  0
    2.9207   -7.9827   -2.5088 O   0  0  0  0  0  0  0  0  0  0  0  0
    2.9043  -10.1294   -1.9593 O   0  0  0  0  0  0  0  0  0  0  0  0
    2.7083   -7.0224    1.3766 N   0  0  0  0  0  0  0  0  0  0  0  0
    2.8536   -5.8200    1.8854 C   0  0  0  0  0  0  0  0  0  0  0  0
    1.1084    1.7546   -0.1261 H   0  0  0  0  0  0  0  0  0  0  0  0
    0.8561    0.8586    1.4088 H   0  0  0  0  0  0  0  0  0  0  0  0
    0.2533    0.1782   -0.0970 H   0  0  0  0  0  0  0  0  0  0  0  0
    5.5149    1.1238   -1.6647 H   0  0  0  0  0  0  0  0  0  0  0  0
    5.9158   -0.5922   -1.9874 H   0  0  0  0  0  0  0  0  0  0  0  0
    6.4803    0.1902   -0.4794 H   0  0  0  0  0  0  0  0  0  0  0  0
    4.8468   -2.1753    0.1975 H   0  0  0  0  0  0  0  0  0  0  0  0
    3.0155   -3.4384    2.7151 H   0  0  0  0  0  0  0  0  0  0  0  0
    1.5473   -3.8785   -0.6422 H   0  0  0  0  0  0  0  0  0  0  0  0
    1.3021   -6.1872   -1.5970 H   0  0  0  0  0  0  0  0  0  0  0  0
    0.9127   -8.7819   -0.4915 H   0  0  0  0  0  0  0  0  0  0  0  0
    2.3621   -9.2435    0.4257 H   0  0  0  0  0  0  0  0  0  0  0  0
    2.6680  -10.6886   -1.2054 H   0  0  0  0  0  0  0  0  0  0  0  0
    3.3056   -5.7412    2.8820 H   0  0  0  0  0  0  0  0  0  0  0  0
  1  2  1  0
  1 21  1  0
  1 22  1  0
  1 23  1  0
  2  3  2  0
  2  7  1  0
  3  4  1  0
  4  5  1  0
  4  6  1  0
  5 24  1  0
  5 25  1  0
  5 26  1  0
  6  7  2  0
  6 27  1  0
  7  8  1  0
  8  9  2  0
  8 10  1  0
 10 11  1  0
 10 28  1  0
 11 12  2  0
 11 20  1  0
 12 13  1  0
 12 29  1  0
 13 14  2  0
 13 30  1  0
 14 15  1  0
 14 19  1  0
 15 16  1  0
 15 31  1  0
 15 32  1  0
 16 17  2  0
 16 18  1  0
 18 33  1  0
 19 20  2  0
 20 34  1  0
M  END

