
     RDKit          3D

 34 34  0  0  0  0  0  0  0  0999 V2000
    1.0181    1.7041   -0.2329 C   0  0  0  0  0  0  0  0  0  0  0  0
    2.3406    1.9414   -0.9408 C   0  0  0  0  0  0  0  0  0  0  0  0
    2.6022    3.0282   -1.4845 O   0  0  0  0  0  0  0  0  0  0  0  0
    3.2288    0.8797   -0.8616 N   0  0  0  0  0  0  0  0  0  0  0  0
    4.5454    0.7734   -1.2876 C   0  0  0  0  0  0  0  0  0  0  0  0
    5.3312    1.8962   -1.7379 C   0  0  0  0  0  0  0  0  0  0  0  0
    6.6483    1.7151   -2.1033 C   0  0  0  0  0  0  0  0  0  0  0  0
    7.2839    0.4400   -2.0819 C   0  0  0  0  0  0  0  0  0  0  0  0
    6.5044   -0.6788   -1.6414 C   0  0  0  0  0  0  0  0  0  0  0  0
    7.1079   -2.0691   -1.6419 C   0  0  0  0  0  0  0  0  0  0  0  0
    7.4160   -2.6967   -2.9603 C   0  0  0  0  0  0  0  0  0  0  0  0
    7.2310   -2.0455   -4.1728 C   0  0  0  0  0  0  0  0  0  0  0  0
    7.4409   -2.5787   -5.3853 N   0  0  0  0  0  0  0  0  0  0  0  0
    7.8807   -3.9600   -5.5693 C   0  0  0  0  0  0  0  0  0  0  0  0
    7.2310   -1.7755   -6.5855 C   0  0  0  0  0  0  0  0  0  0  0  0
    5.1829   -0.5092   -1.2655 C   0  0  0  0  0  0  0  0  0  0  0  0
    0.1976    2.0733   -0.8711 H   0  0  0  0  0  0  0  0  0  0  0  0
    0.9621    2.2843    0.7090 H   0  0  0  0  0  0  0  0  0  0  0  0
    0.8226    0.6462    0.0131 H   0  0  0  0  0  0  0  0  0  0  0  0
    2.8585    0.0441   -0.4251 H   0  0  0  0  0  0  0  0  0  0  0  0
    4.8482    2.8704   -1.7868 H   0  0  0  0  0  0  0  0  0  0  0  0
    7.2251    2.5892   -2.4246 H   0  0  0  0  0  0  0  0  0  0  0  0
    8.3525    0.3425   -2.2888 H   0  0  0  0  0  0  0  0  0  0  0  0
    6.4710   -2.7934   -1.0990 H   0  0  0  0  0  0  0  0  0  0  0  0
    8.0663   -2.1040   -1.0781 H   0  0  0  0  0  0  0  0  0  0  0  0
    7.8129   -3.7171   -2.9507 H   0  0  0  0  0  0  0  0  0  0  0  0
    6.9036   -1.0034   -4.1402 H   0  0  0  0  0  0  0  0  0  0  0  0
    7.1771   -4.6550   -5.0888 H   0  0  0  0  0  0  0  0  0  0  0  0
    8.8804   -4.1072   -5.1331 H   0  0  0  0  0  0  0  0  0  0  0  0
    7.9256   -4.1855   -6.6406 H   0  0  0  0  0  0  0  0  0  0  0  0
    6.9174   -0.7637   -6.3066 H   0  0  0  0  0  0  0  0  0  0  0  0
    6.4545   -2.2397   -7.2129 H   0  0  0  0  0  0  0  0  0  0  0  0
    8.1653   -1.7232   -7.1656 H   0  0  0  0  0  0  0  0  0  0  0  0
    4.5977   -1.3811   -0.9460 H   0  0  0  0  0  0  0  0  0  0  0  0
  1  2  1  0
  1 17  1  0
  1 18  1  0
  1 19  1  0
  2  3  2  0
  2  4  1  0
  4  5  1  0
  4 20  1  0
  5  6  2  0
  5 16  1  0
  6  7  1  0
  6 21  1  0
  7  8  2  0
  7 22  1  0
  8  9  1  0
  8 23  1  0
  9 10  1  0
  9 16  2  0
 10 11  1  0
 10 24  1  0
 10 25  1  0
 11 12  2  0
 11 26  1  0
 12 13  1  0
 12 27  1  0
 13 14  1  0
 13 15  1  0
 14 28  1  0
 14 29  1  0
 14 30  1  0
 15 31  1  0
 15 32  1  0
 15 33  1  0
 16 34  1  0
M  END

