
     RDKit          3D

 81 91  0  0  0  0  0  0  0  0999 V2000
    4.5881   -3.0015    2.8340 C   0  0  0  0  0  0  0  0  0  0  0  0
    5.8392   -2.5175    2.0647 C   0  0  1  0  0  0  0  0  0  0  0  0
    6.3619   -1.2132    2.7098 C   0  0  0  0  0  0  0  0  0  0  0  0
    6.9327   -3.5908    2.2155 C   0  0  0  0  0  0  0  0  0  0  0  0
    5.4707   -2.2580    0.5875 C   0  0  0  0  0  0  0  0  0  0  0  0
    4.4826   -1.2877    0.2849 C   0  0  0  0  0  0  0  0  0  0  0  0
    4.0902   -0.9994   -1.0272 C   0  0  0  0  0  0  0  0  0  0  0  0
    4.7089   -1.7068   -2.0483 C   0  0  0  0  0  0  0  0  0  0  0  0
    4.4641   -1.5758   -3.3832 O   0  0  0  0  0  0  0  0  0  0  0  0
    5.2951   -2.4709   -4.0152 C   0  0  0  0  0  0  0  0  0  0  0  0
    5.2753   -2.5742   -5.3517 N   0  0  0  0  0  0  0  0  0  0  0  0
    6.1319   -3.4812   -5.7695 C   0  0  0  0  0  0  0  0  0  0  0  0
    6.2584   -3.7388   -7.1203 O   0  0  0  0  0  0  0  0  0  0  0  0
    7.2018   -4.7084   -7.2511 C   0  0  0  0  0  0  0  0  0  0  0  0
    7.6248   -5.2559   -8.4452 C   0  0  0  0  0  0  0  0  0  0  0  0
    8.6233   -6.2609   -8.3911 C   0  0  0  0  0  0  0  0  0  0  0  0
    9.1323   -6.6479   -7.1409 C   0  0  0  0  0  0  0  0  0  0  0  0
   10.1623   -7.6723   -7.1101 N   0  0  0  0  0  0  0  0  0  0  0  0
    9.9356   -9.0543   -7.1188 C   0  0  0  0  0  0  0  0  0  0  0  0
    8.7156   -9.7333   -7.1325 C   0  0  0  0  0  0  0  0  0  0  0  0
    8.7611  -11.1302   -7.1391 C   0  0  0  0  0  0  0  0  0  0  0  0
    9.9828  -11.8260   -7.1320 C   0  0  0  0  0  0  0  0  0  0  0  0
   11.2000  -11.1374   -7.1165 C   0  0  0  0  0  0  0  0  0  0  0  0
   11.1785   -9.7388   -7.1096 C   0  0  0  0  0  0  0  0  0  0  0  0
   12.2017   -8.7069   -7.0853 C   0  0  0  0  0  0  0  0  0  0  0  0
   13.5865   -8.7182   -7.0736 C   0  0  0  0  0  0  0  0  0  0  0  0
   14.2829   -7.4852   -7.0842 C   0  0  0  0  0  0  0  0  0  0  0  0
   15.6836   -7.4807   -7.0890 N   0  0  0  0  0  0  0  0  0  0  0  0
   16.5028   -6.6825   -7.9094 C   0  0  0  0  0  0  0  0  0  0  0  0
   16.1402   -5.7895   -8.9260 C   0  0  0  0  0  0  0  0  0  0  0  0
   17.1677   -5.1505   -9.6243 C   0  0  0  0  0  0  0  0  0  0  0  0
   18.5160   -5.4097   -9.3331 C   0  0  0  0  0  0  0  0  0  0  0  0
   18.8723   -6.3328   -8.3412 C   0  0  0  0  0  0  0  0  0  0  0  0
   17.8621   -6.9764   -7.6275 C   0  0  0  0  0  0  0  0  0  0  0  0
   17.8680   -7.9968   -6.5872 C   0  0  0  0  0  0  0  0  0  0  0  0
   18.8859   -8.6463   -5.8900 C   0  0  0  0  0  0  0  0  0  0  0  0
   18.5407   -9.5650   -4.8897 C   0  0  0  0  0  0  0  0  0  0  0  0
   17.1961   -9.8129   -4.5730 C   0  0  0  0  0  0  0  0  0  0  0  0
   16.1611   -9.1673   -5.2543 C   0  0  0  0  0  0  0  0  0  0  0  0
   16.5118   -8.2810   -6.2811 C   0  0  0  0  0  0  0  0  0  0  0  0
   13.5729   -6.2488   -7.0913 C   0  0  0  0  0  0  0  0  0  0  0  0
   12.1928   -6.2187   -7.0843 C   0  0  0  0  0  0  0  0  0  0  0  0
   11.4987   -7.4497   -7.0911 C   0  0  0  0  0  0  0  0  0  0  0  0
    8.7042   -6.1004   -5.9273 C   0  0  0  0  0  0  0  0  0  0  0  0
    7.7054   -5.0937   -5.9693 C   0  0  0  0  0  0  0  0  0  0  0  0
    7.0117   -4.2993   -5.0096 C   0  0  0  0  0  0  0  0  0  0  0  0
    7.0046   -4.1583   -3.5860 C   0  0  0  0  0  0  0  0  0  0  0  0
    6.0876   -3.1880   -3.0985 C   0  0  0  0  0  0  0  0  0  0  0  0
    5.6998   -2.6838   -1.8000 C   0  0  0  0  0  0  0  0  0  0  0  0
    6.0749   -2.9514   -0.4702 C   0  0  0  0  0  0  0  0  0  0  0  0
    4.8290   -3.1871    3.8948 H   0  0  0  0  0  0  0  0  0  0  0  0
    4.2006   -3.9383    2.4025 H   0  0  0  0  0  0  0  0  0  0  0  0
    3.7755   -2.2601    2.8001 H   0  0  0  0  0  0  0  0  0  0  0  0
    6.6270   -1.3804    3.7678 H   0  0  0  0  0  0  0  0  0  0  0  0
    5.6103   -0.4100    2.6768 H   0  0  0  0  0  0  0  0  0  0  0  0
    7.2601   -0.8497    2.1854 H   0  0  0  0  0  0  0  0  0  0  0  0
    7.1622   -3.7440    3.2825 H   0  0  0  0  0  0  0  0  0  0  0  0
    7.8674   -3.2961    1.7132 H   0  0  0  0  0  0  0  0  0  0  0  0
    6.6151   -4.5605    1.8017 H   0  0  0  0  0  0  0  0  0  0  0  0
    4.0007   -0.7388    1.0969 H   0  0  0  0  0  0  0  0  0  0  0  0
    3.3267   -0.2501   -1.2454 H   0  0  0  0  0  0  0  0  0  0  0  0
    7.2015   -4.9224   -9.3938 H   0  0  0  0  0  0  0  0  0  0  0  0
    8.9944   -6.7263   -9.3048 H   0  0  0  0  0  0  0  0  0  0  0  0
    7.7724   -9.1865   -7.1363 H   0  0  0  0  0  0  0  0  0  0  0  0
    7.8247  -11.6926   -7.1492 H   0  0  0  0  0  0  0  0  0  0  0  0
    9.9799  -12.9181   -7.1392 H   0  0  0  0  0  0  0  0  0  0  0  0
   12.1452  -11.6859   -7.1114 H   0  0  0  0  0  0  0  0  0  0  0  0
   14.1404   -9.6568   -7.1147 H   0  0  0  0  0  0  0  0  0  0  0  0
   15.0978   -5.6036   -9.1822 H   0  0  0  0  0  0  0  0  0  0  0  0
   16.9125   -4.4441  -10.4166 H   0  0  0  0  0  0  0  0  0  0  0  0
   19.2969   -4.8962   -9.8977 H   0  0  0  0  0  0  0  0  0  0  0  0
   19.9234   -6.5501   -8.1398 H   0  0  0  0  0  0  0  0  0  0  0  0
   19.9347   -8.4361   -6.1094 H   0  0  0  0  0  0  0  0  0  0  0  0
   19.3279  -10.0813   -4.3367 H   0  0  0  0  0  0  0  0  0  0  0  0
   16.9503  -10.5122   -3.7714 H   0  0  0  0  0  0  0  0  0  0  0  0
   15.1222   -9.3385   -4.9741 H   0  0  0  0  0  0  0  0  0  0  0  0
   14.1339   -5.3153   -7.0419 H   0  0  0  0  0  0  0  0  0  0  0  0
   11.6430   -5.2785   -7.0504 H   0  0  0  0  0  0  0  0  0  0  0  0
    9.1247   -6.4440   -4.9807 H   0  0  0  0  0  0  0  0  0  0  0  0
    7.6432   -4.7475   -2.9299 H   0  0  0  0  0  0  0  0  0  0  0  0
    6.8384   -3.7062   -0.2832 H   0  0  0  0  0  0  0  0  0  0  0  0
  2  1  1  1
  1 51  1  0
  1 52  1  0
  1 53  1  0
  2  3  1  0
  2  4  1  0
  2  5  1  0
  3 54  1  0
  3 55  1  0
  3 56  1  0
  4 57  1  0
  4 58  1  0
  4 59  1  0
  5  6  2  0
  5 50  1  0
  6  7  1  0
  6 60  1  0
  7  8  2  0
  7 61  1  0
  8  9  1  0
  8 49  1  0
  9 10  1  0
 10 11  1  0
 10 48  2  0
 11 12  2  0
 12 13  1  0
 12 46  1  0
 13 14  1  0
 14 15  1  0
 14 45  2  0
 15 16  2  0
 15 62  1  0
 16 17  1  0
 16 63  1  0
 17 18  1  0
 17 44  2  0
 18 19  1  0
 18 43  1  0
 19 20  2  0
 19 24  1  0
 20 21  1  0
 20 64  1  0
 21 22  2  0
 21 65  1  0
 22 23  1  0
 22 66  1  0
 23 24  2  0
 23 67  1  0
 24 25  1  0
 25 26  1  0
 25 43  2  0
 26 27  2  0
 26 68  1  0
 27 28  1  0
 27 41  1  0
 28 29  1  0
 28 40  1  0
 29 30  2  0
 29 34  1  0
 30 31  1  0
 30 69  1  0
 31 32  2  0
 31 70  1  0
 32 33  1  0
 32 71  1  0
 33 34  2  0
 33 72  1  0
 34 35  1  0
 35 36  1  0
 35 40  2  0
 36 37  2  0
 36 73  1  0
 37 38  1  0
 37 74  1  0
 38 39  2  0
 38 75  1  0
 39 40  1  0
 39 76  1  0
 41 42  2  0
 41 77  1  0
 42 43  1  0
 42 78  1  0
 44 45  1  0
 44 79  1  0
 45 46  1  0
 46 47  2  0
 47 48  1  0
 47 80  1  0
 48 49  1  0
 49 50  2  0
 50 81  1  0
M  END

