
     RDKit          3D

233248  0  0  0  0  0  0  0  0999 V2000
    5.7343   -7.2061    4.7204 C   0  0  0  0  0  0  0  0  0  0  0  0
    4.3409   -7.3703    4.0702 C   0  0  1  0  0  0  0  0  0  0  0  0
    3.9400   -8.8639    4.0884 C   0  0  0  0  0  0  0  0  0  0  0  0
    3.3222   -6.5923    4.9228 C   0  0  0  0  0  0  0  0  0  0  0  0
    4.3847   -6.8670    2.6127 C   0  0  0  0  0  0  0  0  0  0  0  0
    5.2773   -7.4708    1.6925 C   0  0  0  0  0  0  0  0  0  0  0  0
    5.3672   -7.0828    0.3578 C   0  0  0  0  0  0  0  0  0  0  0  0
    4.5335   -6.0535   -0.0873 C   0  0  0  0  0  0  0  0  0  0  0  0
    3.6441   -5.4110    0.8082 C   0  0  0  0  0  0  0  0  0  0  0  0
    3.5738   -5.8261    2.1467 C   0  0  0  0  0  0  0  0  0  0  0  0
    2.9759   -4.3675    0.0553 C   0  0  0  0  0  0  0  0  0  0  0  0
    2.0042   -3.4122    0.3893 C   0  0  0  0  0  0  0  0  0  0  0  0
    1.5438   -2.4999   -0.5665 C   0  0  0  0  0  0  0  0  0  0  0  0
    0.4793   -1.4288   -0.2526 C   0  0  1  0  0  0  0  0  0  0  0  0
   -0.0009   -1.4982    1.2083 C   0  0  0  0  0  0  0  0  0  0  0  0
    1.0719   -0.0214   -0.4958 C   0  0  0  0  0  0  0  0  0  0  0  0
   -0.7484   -1.6339   -1.1705 C   0  0  0  0  0  0  0  0  0  0  0  0
    2.0958   -2.5742   -1.8697 C   0  0  0  0  0  0  0  0  0  0  0  0
    3.0596   -3.5122   -2.2317 C   0  0  0  0  0  0  0  0  0  0  0  0
    3.4950   -4.4202   -1.2605 C   0  0  0  0  0  0  0  0  0  0  0  0
    4.4214   -5.4658   -1.3531 N   0  0  0  0  0  0  0  0  0  0  0  0
    5.1723   -5.7968   -2.5126 C   0  0  0  0  0  0  0  0  0  0  0  0
    6.1426   -4.8184   -2.9768 C   0  0  0  0  0  0  0  0  0  0  0  0
    6.4168   -3.6336   -2.2752 C   0  0  0  0  0  0  0  0  0  0  0  0
    6.6829   -2.6322   -1.7254 N   0  0  0  0  0  0  0  0  0  0  0  0
    6.8645   -5.1438   -4.1850 C   0  0  0  0  0  0  0  0  0  0  0  0
    7.8004   -4.1880   -4.7153 N   0  0  0  0  0  0  0  0  0  0  0  0
    7.5369   -3.2648   -5.7264 C   0  0  0  0  0  0  0  0  0  0  0  0
    6.3600   -3.0353   -6.4387 C   0  0  0  0  0  0  0  0  0  0  0  0
    6.3650   -2.0305   -7.4149 C   0  0  0  0  0  0  0  0  0  0  0  0
    7.5036   -1.2532   -7.6965 C   0  0  0  0  0  0  0  0  0  0  0  0
    7.5121   -0.1542   -8.7753 C   0  0  1  0  0  0  0  0  0  0  0  0
    6.1499   -0.0152   -9.4782 C   0  0  0  0  0  0  0  0  0  0  0  0
    7.8589    1.2052   -8.1231 C   0  0  0  0  0  0  0  0  0  0  0  0
    8.5757   -0.4986   -9.8451 C   0  0  0  0  0  0  0  0  0  0  0  0
    8.6782   -1.4977   -6.9434 C   0  0  0  0  0  0  0  0  0  0  0  0
    8.6990   -2.4842   -5.9639 C   0  0  0  0  0  0  0  0  0  0  0  0
    9.6982   -2.9366   -5.0041 C   0  0  0  0  0  0  0  0  0  0  0  0
   10.9992   -2.5409   -4.7061 C   0  0  0  0  0  0  0  0  0  0  0  0
   11.7030   -3.1476   -3.6445 C   0  0  0  0  0  0  0  0  0  0  0  0
   13.1351   -2.7349   -3.2637 C   0  0  1  0  0  0  0  0  0  0  0  0
   13.6976   -1.6466   -4.1959 C   0  0  0  0  0  0  0  0  0  0  0  0
   13.1379   -2.1827   -1.8176 C   0  0  0  0  0  0  0  0  0  0  0  0
   14.0647   -3.9694   -3.3462 C   0  0  0  0  0  0  0  0  0  0  0  0
   11.0466   -4.1571   -2.8950 C   0  0  0  0  0  0  0  0  0  0  0  0
    9.7531   -4.5796   -3.1730 C   0  0  0  0  0  0  0  0  0  0  0  0
    9.0803   -3.9710   -4.2461 C   0  0  0  0  0  0  0  0  0  0  0  0
    6.6868   -6.3466   -4.8395 C   0  0  0  0  0  0  0  0  0  0  0  0
    7.4523   -6.5848   -6.0383 N   0  0  0  0  0  0  0  0  0  0  0  0
    8.7820   -7.0019   -6.0926 C   0  0  0  0  0  0  0  0  0  0  0  0
    9.6737   -7.3102   -5.0587 C   0  0  0  0  0  0  0  0  0  0  0  0
   10.9653   -7.7096   -5.4006 C   0  0  0  0  0  0  0  0  0  0  0  0
   11.4063   -7.8175   -6.7396 C   0  0  0  0  0  0  0  0  0  0  0  0
   12.8489   -8.2744   -7.0325 C   0  0  1  0  0  0  0  0  0  0  0  0
   13.0724   -9.6858   -6.4407 C   0  0  0  0  0  0  0  0  0  0  0  0
   13.1445   -8.3354   -8.5420 C   0  0  0  0  0  0  0  0  0  0  0  0
   13.8456   -7.2834   -6.3863 C   0  0  0  0  0  0  0  0  0  0  0  0
   10.4902   -7.5049   -7.7597 C   0  0  0  0  0  0  0  0  0  0  0  0
    9.1895   -7.1011   -7.4471 C   0  0  0  0  0  0  0  0  0  0  0  0
    8.0380   -6.7308   -8.2521 C   0  0  0  0  0  0  0  0  0  0  0  0
    7.8169   -6.6367   -9.6280 C   0  0  0  0  0  0  0  0  0  0  0  0
    6.5600   -6.2451  -10.1235 C   0  0  0  0  0  0  0  0  0  0  0  0
    6.2611   -6.1376  -11.6310 C   0  0  1  0  0  0  0  0  0  0  0  0
    7.4894   -6.4778  -12.4941 C   0  0  0  0  0  0  0  0  0  0  0  0
    5.1242   -7.1201  -11.9998 C   0  0  0  0  0  0  0  0  0  0  0  0
    5.8216   -4.6934  -11.9684 C   0  0  0  0  0  0  0  0  0  0  0  0
    5.5403   -5.9518   -9.1871 C   0  0  0  0  0  0  0  0  0  0  0  0
    5.7315   -6.0329   -7.8097 C   0  0  0  0  0  0  0  0  0  0  0  0
    6.9920   -6.4275   -7.3416 C   0  0  0  0  0  0  0  0  0  0  0  0
    5.7625   -7.3313   -4.3630 C   0  0  0  0  0  0  0  0  0  0  0  0
    5.4982   -8.4974   -5.1366 N   0  0  0  0  0  0  0  0  0  0  0  0
    6.3206   -9.6243   -5.2707 C   0  0  0  0  0  0  0  0  0  0  0  0
    7.5339   -9.9353   -4.6562 C   0  0  0  0  0  0  0  0  0  0  0  0
    8.1566  -11.1451   -4.9754 C   0  0  0  0  0  0  0  0  0  0  0  0
    7.6068  -12.0672   -5.8926 C   0  0  0  0  0  0  0  0  0  0  0  0
    8.2959  -13.4017   -6.2469 C   0  0  1  0  0  0  0  0  0  0  0  0
    9.6297  -13.5884   -5.5004 C   0  0  0  0  0  0  0  0  0  0  0  0
    7.3674  -14.5797   -5.8705 C   0  0  0  0  0  0  0  0  0  0  0  0
    8.5881  -13.4461   -7.7648 C   0  0  0  0  0  0  0  0  0  0  0  0
    6.3813  -11.7365   -6.4930 C   0  0  0  0  0  0  0  0  0  0  0  0
    5.7367  -10.5325   -6.1924 C   0  0  0  0  0  0  0  0  0  0  0  0
    4.4911   -9.9336   -6.6322 C   0  0  0  0  0  0  0  0  0  0  0  0
    3.4842  -10.3469   -7.5161 C   0  0  0  0  0  0  0  0  0  0  0  0
    2.3636   -9.5390   -7.7463 C   0  0  0  0  0  0  0  0  0  0  0  0
    1.2177   -9.9498   -8.6932 C   0  0  1  0  0  0  0  0  0  0  0  0
    1.4882  -11.2993   -9.3824 C   0  0  0  0  0  0  0  0  0  0  0  0
   -0.0960  -10.0760   -7.8864 C   0  0  0  0  0  0  0  0  0  0  0  0
    1.0405   -8.8782   -9.7941 C   0  0  0  0  0  0  0  0  0  0  0  0
    2.2897   -8.3013   -7.0600 C   0  0  0  0  0  0  0  0  0  0  0  0
    3.2760   -7.8642   -6.1795 C   0  0  0  0  0  0  0  0  0  0  0  0
    4.3851   -8.6894   -5.9633 C   0  0  0  0  0  0  0  0  0  0  0  0
    4.9882   -7.0062   -3.1806 C   0  0  0  0  0  0  0  0  0  0  0  0
    4.0135   -7.9378   -2.7203 N   0  0  0  0  0  0  0  0  0  0  0  0
    4.2794   -9.2018   -2.1791 C   0  0  0  0  0  0  0  0  0  0  0  0
    5.4986   -9.8273   -1.9033 C   0  0  0  0  0  0  0  0  0  0  0  0
    5.4759  -11.0964   -1.3299 C   0  0  0  0  0  0  0  0  0  0  0  0
    4.2742  -11.7760   -1.0113 C   0  0  0  0  0  0  0  0  0  0  0  0
    4.3412  -13.1800   -0.3765 C   0  0  1  0  0  0  0  0  0  0  0  0
    5.1039  -13.1051    0.9667 C   0  0  0  0  0  0  0  0  0  0  0  0
    2.9420  -13.7586   -0.0988 C   0  0  0  0  0  0  0  0  0  0  0  0
    5.0786  -14.1473   -1.3316 C   0  0  0  0  0  0  0  0  0  0  0  0
    3.0665  -11.1253   -1.2859 C   0  0  0  0  0  0  0  0  0  0  0  0
    3.0592   -9.8462   -1.8630 C   0  0  0  0  0  0  0  0  0  0  0  0
    1.9982   -8.9295   -2.2275 C   0  0  0  0  0  0  0  0  0  0  0  0
    0.5990   -9.0059   -2.1541 C   0  0  0  0  0  0  0  0  0  0  0  0
   -0.1962   -7.9408   -2.5900 C   0  0  0  0  0  0  0  0  0  0  0  0
   -1.7367   -7.9649   -2.5209 C   0  0  1  0  0  0  0  0  0  0  0  0
   -2.2715   -9.2856   -1.9379 C   0  0  0  0  0  0  0  0  0  0  0  0
   -2.2318   -6.8081   -1.6216 C   0  0  0  0  0  0  0  0  0  0  0  0
   -2.3236   -7.7953   -3.9415 C   0  0  0  0  0  0  0  0  0  0  0  0
    0.4616   -6.7972   -3.1070 C   0  0  0  0  0  0  0  0  0  0  0  0
    1.8478   -6.6932   -3.1913 C   0  0  0  0  0  0  0  0  0  0  0  0
    2.6221   -7.7679   -2.7440 C   0  0  0  0  0  0  0  0  0  0  0  0
    5.7205   -7.5654    5.7631 H   0  0  0  0  0  0  0  0  0  0  0  0
    6.0428   -6.1485    4.7278 H   0  0  0  0  0  0  0  0  0  0  0  0
    6.5079   -7.7753    4.1828 H   0  0  0  0  0  0  0  0  0  0  0  0
    3.9064   -9.2445    5.1232 H   0  0  0  0  0  0  0  0  0  0  0  0
    4.6525   -9.4867    3.5263 H   0  0  0  0  0  0  0  0  0  0  0  0
    2.9449   -9.0089    3.6385 H   0  0  0  0  0  0  0  0  0  0  0  0
    3.3221   -6.9812    5.9536 H   0  0  0  0  0  0  0  0  0  0  0  0
    2.2980   -6.6929    4.5310 H   0  0  0  0  0  0  0  0  0  0  0  0
    3.5645   -5.5192    4.9740 H   0  0  0  0  0  0  0  0  0  0  0  0
    5.9273   -8.2813    2.0297 H   0  0  0  0  0  0  0  0  0  0  0  0
    6.0691   -7.5750   -0.3144 H   0  0  0  0  0  0  0  0  0  0  0  0
    2.8789   -5.3171    2.8149 H   0  0  0  0  0  0  0  0  0  0  0  0
    1.6183   -3.3949    1.4088 H   0  0  0  0  0  0  0  0  0  0  0  0
    0.8233   -1.3284    1.9185 H   0  0  0  0  0  0  0  0  0  0  0  0
   -0.4601   -2.4710    1.4437 H   0  0  0  0  0  0  0  0  0  0  0  0
   -0.7600   -0.7207    1.3903 H   0  0  0  0  0  0  0  0  0  0  0  0
    1.9473    0.1527    0.1496 H   0  0  0  0  0  0  0  0  0  0  0  0
    0.3233    0.7584   -0.2756 H   0  0  0  0  0  0  0  0  0  0  0  0
    1.3964    0.1131   -1.5389 H   0  0  0  0  0  0  0  0  0  0  0  0
   -1.1952   -2.6288   -1.0134 H   0  0  0  0  0  0  0  0  0  0  0  0
   -0.4822   -1.5523   -2.2356 H   0  0  0  0  0  0  0  0  0  0  0  0
   -1.5215   -0.8753   -0.9615 H   0  0  0  0  0  0  0  0  0  0  0  0
    1.7655   -1.8645   -2.6319 H   0  0  0  0  0  0  0  0  0  0  0  0
    3.4709   -3.5226   -3.2423 H   0  0  0  0  0  0  0  0  0  0  0  0
    5.4547   -3.6017   -6.2266 H   0  0  0  0  0  0  0  0  0  0  0  0
    5.4407   -1.8569   -7.9639 H   0  0  0  0  0  0  0  0  0  0  0  0
    5.3503    0.2623   -8.7739 H   0  0  0  0  0  0  0  0  0  0  0  0
    5.8524   -0.9450   -9.9878 H   0  0  0  0  0  0  0  0  0  0  0  0
    6.2055    0.7762  -10.2416 H   0  0  0  0  0  0  0  0  0  0  0  0
    7.1185    1.4746   -7.3535 H   0  0  0  0  0  0  0  0  0  0  0  0
    7.8657    2.0026   -8.8840 H   0  0  0  0  0  0  0  0  0  0  0  0
    8.8505    1.1956   -7.6455 H   0  0  0  0  0  0  0  0  0  0  0  0
    8.3495   -1.4605  -10.3323 H   0  0  0  0  0  0  0  0  0  0  0  0
    9.5864   -0.5705   -9.4149 H   0  0  0  0  0  0  0  0  0  0  0  0
    8.6009    0.2809  -10.6239 H   0  0  0  0  0  0  0  0  0  0  0  0
    9.5764   -0.9031   -7.1223 H   0  0  0  0  0  0  0  0  0  0  0  0
   11.4605   -1.7472   -5.2929 H   0  0  0  0  0  0  0  0  0  0  0  0
   13.1045   -0.7199   -4.1530 H   0  0  0  0  0  0  0  0  0  0  0  0
   13.7388   -1.9826   -5.2440 H   0  0  0  0  0  0  0  0  0  0  0  0
   14.7244   -1.3923   -3.8910 H   0  0  0  0  0  0  0  0  0  0  0  0
   12.4838   -1.3012   -1.7292 H   0  0  0  0  0  0  0  0  0  0  0  0
   14.1579   -1.8819   -1.5280 H   0  0  0  0  0  0  0  0  0  0  0  0
   12.7912   -2.9302   -1.0884 H   0  0  0  0  0  0  0  0  0  0  0  0
   14.0843   -4.3838   -4.3667 H   0  0  0  0  0  0  0  0  0  0  0  0
   13.7474   -4.7721   -2.6637 H   0  0  0  0  0  0  0  0  0  0  0  0
   15.0944   -3.6884   -3.0718 H   0  0  0  0  0  0  0  0  0  0  0  0
   11.5656   -4.6180   -2.0530 H   0  0  0  0  0  0  0  0  0  0  0  0
    9.2597   -5.3293   -2.5551 H   0  0  0  0  0  0  0  0  0  0  0  0
    9.3679   -7.2578   -4.0153 H   0  0  0  0  0  0  0  0  0  0  0  0
   11.6540   -7.9507   -4.5884 H   0  0  0  0  0  0  0  0  0  0  0  0
   12.3759  -10.4145   -6.8848 H   0  0  0  0  0  0  0  0  0  0  0  0
   12.9245   -9.7031   -5.3503 H   0  0  0  0  0  0  0  0  0  0  0  0
   14.1004  -10.0293   -6.6427 H   0  0  0  0  0  0  0  0  0  0  0  0
   12.4869   -9.0498   -9.0613 H   0  0  0  0  0  0  0  0  0  0  0  0
   14.1825   -8.6653   -8.7049 H   0  0  0  0  0  0  0  0  0  0  0  0
   13.0322   -7.3517   -9.0243 H   0  0  0  0  0  0  0  0  0  0  0  0
   13.7192   -7.2250   -5.2945 H   0  0  0  0  0  0  0  0  0  0  0  0
   13.7129   -6.2684   -6.7940 H   0  0  0  0  0  0  0  0  0  0  0  0
   14.8835   -7.5977   -6.5848 H   0  0  0  0  0  0  0  0  0  0  0  0
   10.7800   -7.5773   -8.8078 H   0  0  0  0  0  0  0  0  0  0  0  0
    8.6328   -6.8749  -10.3103 H   0  0  0  0  0  0  0  0  0  0  0  0
    7.8360   -7.5097  -12.3283 H   0  0  0  0  0  0  0  0  0  0  0  0
    8.3319   -5.7963  -12.2974 H   0  0  0  0  0  0  0  0  0  0  0  0
    7.2322   -6.3849  -13.5607 H   0  0  0  0  0  0  0  0  0  0  0  0
    5.4140   -8.1595  -11.7792 H   0  0  0  0  0  0  0  0  0  0  0  0
    4.8910   -7.0509  -13.0751 H   0  0  0  0  0  0  0  0  0  0  0  0
    4.1987   -6.9073  -11.4434 H   0  0  0  0  0  0  0  0  0  0  0  0
    6.6151   -3.9710  -11.7184 H   0  0  0  0  0  0  0  0  0  0  0  0
    4.9143   -4.4000  -11.4191 H   0  0  0  0  0  0  0  0  0  0  0  0
    5.6028   -4.6000  -13.0449 H   0  0  0  0  0  0  0  0  0  0  0  0
    4.5516   -5.6587   -9.5454 H   0  0  0  0  0  0  0  0  0  0  0  0
    4.9139   -5.8219   -7.1233 H   0  0  0  0  0  0  0  0  0  0  0  0
    7.9904   -9.2582   -3.9355 H   0  0  0  0  0  0  0  0  0  0  0  0
    9.1040  -11.3680   -4.4847 H   0  0  0  0  0  0  0  0  0  0  0  0
    9.4918  -13.6005   -4.4079 H   0  0  0  0  0  0  0  0  0  0  0  0
   10.3525  -12.7941   -5.7453 H   0  0  0  0  0  0  0  0  0  0  0  0
   10.0854  -14.5498   -5.7861 H   0  0  0  0  0  0  0  0  0  0  0  0
    7.1447  -14.5764   -4.7917 H   0  0  0  0  0  0  0  0  0  0  0  0
    7.8429  -15.5434   -6.1190 H   0  0  0  0  0  0  0  0  0  0  0  0
    6.4081  -14.5334   -6.4081 H   0  0  0  0  0  0  0  0  0  0  0  0
    9.0767  -14.3962   -8.0386 H   0  0  0  0  0  0  0  0  0  0  0  0
    7.6673  -13.3615   -8.3618 H   0  0  0  0  0  0  0  0  0  0  0  0
    9.2549  -12.6208   -8.0618 H   0  0  0  0  0  0  0  0  0  0  0  0
    5.9135  -12.4212   -7.2045 H   0  0  0  0  0  0  0  0  0  0  0  0
    3.5888  -11.3098   -8.0165 H   0  0  0  0  0  0  0  0  0  0  0  0
    1.5849  -12.1200   -8.6549 H   0  0  0  0  0  0  0  0  0  0  0  0
    2.4052  -11.2723   -9.9919 H   0  0  0  0  0  0  0  0  0  0  0  0
    0.6515  -11.5506  -10.0534 H   0  0  0  0  0  0  0  0  0  0  0  0
   -0.0029  -10.8432   -7.1015 H   0  0  0  0  0  0  0  0  0  0  0  0
   -0.9311  -10.3621   -8.5477 H   0  0  0  0  0  0  0  0  0  0  0  0
   -0.3681   -9.1299   -7.3942 H   0  0  0  0  0  0  0  0  0  0  0  0
    1.9615   -8.7689  -10.3893 H   0  0  0  0  0  0  0  0  0  0  0  0
    0.7940   -7.8919   -9.3723 H   0  0  0  0  0  0  0  0  0  0  0  0
    0.2234   -9.1594  -10.4792 H   0  0  0  0  0  0  0  0  0  0  0  0
    1.4198   -7.6578   -7.2086 H   0  0  0  0  0  0  0  0  0  0  0  0
    3.1671   -6.9147   -5.6564 H   0  0  0  0  0  0  0  0  0  0  0  0
    6.4467   -9.3404   -2.1276 H   0  0  0  0  0  0  0  0  0  0  0  0
    6.4346  -11.5774   -1.1237 H   0  0  0  0  0  0  0  0  0  0  0  0
    4.5980  -12.4229    1.6683 H   0  0  0  0  0  0  0  0  0  0  0  0
    6.1346  -12.7421    0.8336 H   0  0  0  0  0  0  0  0  0  0  0  0
    5.1598  -14.1009    1.4378 H   0  0  0  0  0  0  0  0  0  0  0  0
    2.3706  -13.1313    0.6032 H   0  0  0  0  0  0  0  0  0  0  0  0
    3.0330  -14.7602    0.3511 H   0  0  0  0  0  0  0  0  0  0  0  0
    2.3509  -13.8637   -1.0220 H   0  0  0  0  0  0  0  0  0  0  0  0
    6.1045  -13.8105   -1.5454 H   0  0  0  0  0  0  0  0  0  0  0  0
    4.5486  -14.2297   -2.2939 H   0  0  0  0  0  0  0  0  0  0  0  0
    5.1432  -15.1556   -0.8890 H   0  0  0  0  0  0  0  0  0  0  0  0
    2.1121  -11.5971   -1.0512 H   0  0  0  0  0  0  0  0  0  0  0  0
    0.1475   -9.9117   -1.7491 H   0  0  0  0  0  0  0  0  0  0  0  0
   -1.9162   -9.4533   -0.9092 H   0  0  0  0  0  0  0  0  0  0  0  0
   -1.9752  -10.1537   -2.5475 H   0  0  0  0  0  0  0  0  0  0  0  0
   -3.3726   -9.2622   -1.9082 H   0  0  0  0  0  0  0  0  0  0  0  0
   -1.8306   -6.9050   -0.6004 H   0  0  0  0  0  0  0  0  0  0  0  0
   -3.3331   -6.8096   -1.5588 H   0  0  0  0  0  0  0  0  0  0  0  0
   -1.9210   -5.8256   -2.0085 H   0  0  0  0  0  0  0  0  0  0  0  0
   -1.9949   -8.6128   -4.6031 H   0  0  0  0  0  0  0  0  0  0  0  0
   -2.0117   -6.8457   -4.4023 H   0  0  0  0  0  0  0  0  0  0  0  0
   -3.4262   -7.8037   -3.9097 H   0  0  0  0  0  0  0  0  0  0  0  0
   -0.1308   -5.9456   -3.4491 H   0  0  0  0  0  0  0  0  0  0  0  0
    2.3052   -5.7854   -3.5825 H   0  0  0  0  0  0  0  0  0  0  0  0
  2  1  1  1
  1114  1  0
  1115  1  0
  1116  1  0
  2  3  1  0
  2  4  1  0
  2  5  1  0
  3117  1  0
  3118  1  0
  3119  1  0
  4120  1  0
  4121  1  0
  4122  1  0
  5  6  2  0
  5 10  1  0
  6  7  1  0
  6123  1  0
  7  8  2  0
  7124  1  0
  8  9  1  0
  8 21  1  0
  9 10  2  0
  9 11  1  0
 10125  1  0
 11 12  2  0
 11 20  1  0
 12 13  1  0
 12126  1  0
 13 14  1  0
 13 18  2  0
 14 15  1  1
 14 16  1  0
 14 17  1  0
 15127  1  0
 15128  1  0
 15129  1  0
 16130  1  0
 16131  1  0
 16132  1  0
 17133  1  0
 17134  1  0
 17135  1  0
 18 19  1  0
 18136  1  0
 19 20  2  0
 19137  1  0
 20 21  1  0
 21 22  1  0
 22 23  2  0
 22 92  1  0
 23 24  1  0
 23 26  1  0
 24 25  3  0
 26 27  1  0
 26 48  2  0
 27 28  1  0
 27 47  1  0
 28 29  2  0
 28 37  1  0
 29 30  1  0
 29138  1  0
 30 31  2  0
 30139  1  0
 31 32  1  0
 31 36  1  0
 32 33  1  6
 32 34  1  0
 32 35  1  0
 33140  1  0
 33141  1  0
 33142  1  0
 34143  1  0
 34144  1  0
 34145  1  0
 35146  1  0
 35147  1  0
 35148  1  0
 36 37  2  0
 36149  1  0
 37 38  1  0
 38 39  1  0
 38 47  2  0
 39 40  2  0
 39150  1  0
 40 41  1  0
 40 45  1  0
 41 42  1  6
 41 43  1  0
 41 44  1  0
 42151  1  0
 42152  1  0
 42153  1  0
 43154  1  0
 43155  1  0
 43156  1  0
 44157  1  0
 44158  1  0
 44159  1  0
 45 46  2  0
 45160  1  0
 46 47  1  0
 46161  1  0
 48 49  1  0
 48 70  1  0
 49 50  1  0
 49 69  1  0
 50 51  2  0
 50 59  1  0
 51 52  1  0
 51162  1  0
 52 53  2  0
 52163  1  0
 53 54  1  0
 53 58  1  0
 54 55  1  1
 54 56  1  0
 54 57  1  0
 55164  1  0
 55165  1  0
 55166  1  0
 56167  1  0
 56168  1  0
 56169  1  0
 57170  1  0
 57171  1  0
 57172  1  0
 58 59  2  0
 58173  1  0
 59 60  1  0
 60 61  1  0
 60 69  2  0
 61 62  2  0
 61174  1  0
 62 63  1  0
 62 67  1  0
 63 64  1  6
 63 65  1  0
 63 66  1  0
 64175  1  0
 64176  1  0
 64177  1  0
 65178  1  0
 65179  1  0
 65180  1  0
 66181  1  0
 66182  1  0
 66183  1  0
 67 68  2  0
 67184  1  0
 68 69  1  0
 68185  1  0
 70 71  1  0
 70 92  2  0
 71 72  1  0
 71 91  1  0
 72 73  2  0
 72 81  1  0
 73 74  1  0
 73186  1  0
 74 75  2  0
 74187  1  0
 75 76  1  0
 75 80  1  0
 76 77  1  1
 76 78  1  0
 76 79  1  0
 77188  1  0
 77189  1  0
 77190  1  0
 78191  1  0
 78192  1  0
 78193  1  0
 79194  1  0
 79195  1  0
 79196  1  0
 80 81  2  0
 80197  1  0
 81 82  1  0
 82 83  1  0
 82 91  2  0
 83 84  2  0
 83198  1  0
 84 85  1  0
 84 89  1  0
 85 86  1  6
 85 87  1  0
 85 88  1  0
 86199  1  0
 86200  1  0
 86201  1  0
 87202  1  0
 87203  1  0
 87204  1  0
 88205  1  0
 88206  1  0
 88207  1  0
 89 90  2  0
 89208  1  0
 90 91  1  0
 90209  1  0
 92 93  1  0
 93 94  1  0
 93113  1  0
 94 95  2  0
 94103  1  0
 95 96  1  0
 95210  1  0
 96 97  2  0
 96211  1  0
 97 98  1  0
 97102  1  0
 98 99  1  1
 98100  1  0
 98101  1  0
 99212  1  0
 99213  1  0
 99214  1  0
100215  1  0
100216  1  0
100217  1  0
101218  1  0
101219  1  0
101220  1  0
102103  2  0
102221  1  0
103104  1  0
104105  1  0
104113  2  0
105106  2  0
105222  1  0
106107  1  0
106111  1  0
107108  1  1
107109  1  0
107110  1  0
108223  1  0
108224  1  0
108225  1  0
109226  1  0
109227  1  0
109228  1  0
110229  1  0
110230  1  0
110231  1  0
111112  2  0
111232  1  0
112113  1  0
112233  1  0
M  END

