
     RDKit          3D

174182  0  0  0  0  0  0  0  0999 V2000
    9.4306   -6.9208    4.9091 C   0  0  0  0  0  0  0  0  0  0  0  0
   10.4764   -6.0331    4.2306 C   0  0  0  0  0  0  0  0  0  0  0  0
    9.9936   -4.6135    3.8905 C   0  0  0  0  0  0  0  0  0  0  0  0
    8.7881   -4.5123    2.9401 C   0  0  0  0  0  0  0  0  0  0  0  0
    8.9475   -5.1310    1.5330 C   0  0  1  0  0  0  0  0  0  0  0  0
    7.5723   -5.2351    0.8419 C   0  0  0  0  0  0  0  0  0  0  0  0
    7.5400   -5.9121   -0.5302 C   0  0  0  0  0  0  0  0  0  0  0  0
    9.9709   -4.3367    0.7182 C   0  0  0  0  0  0  0  0  0  0  0  0
   10.5171   -5.1732   -0.3113 O   0  0  0  0  0  0  0  0  0  0  0  0
   11.4439   -4.7243   -1.1575 C   0  0  0  0  0  0  0  0  0  0  0  0
   11.9276   -3.4042   -1.1532 C   0  0  0  0  0  0  0  0  0  0  0  0
   12.8854   -3.0015   -2.0892 C   0  0  0  0  0  0  0  0  0  0  0  0
   13.3760   -1.7590   -2.1545 O   0  0  0  0  0  0  0  0  0  0  0  0
   12.8973   -0.7285   -1.2803 C   0  0  0  0  0  0  0  0  0  0  0  0
   13.5848    0.6032   -1.5884 C   0  0  1  0  0  0  0  0  0  0  0  0
   15.0312    0.6929   -1.0469 C   0  0  0  0  0  0  0  0  0  0  0  0
   16.0894   -0.2010   -1.7008 C   0  0  0  0  0  0  0  0  0  0  0  0
   13.4737    1.0163   -3.0701 C   0  0  0  0  0  0  0  0  0  0  0  0
   12.0551    1.1238   -3.6506 C   0  0  0  0  0  0  0  0  0  0  0  0
   11.1515    2.1757   -2.9960 C   0  0  0  0  0  0  0  0  0  0  0  0
    9.7907    2.3111   -3.6817 C   0  0  0  0  0  0  0  0  0  0  0  0
   13.3870   -3.9331   -3.0717 C   0  0  0  0  0  0  0  0  0  0  0  0
   14.2848   -3.4844   -4.0938 C   0  0  0  0  0  0  0  0  0  0  0  0
   14.7054   -4.2892   -5.1360 C   0  0  0  0  0  0  0  0  0  0  0  0
   15.5666   -4.0224   -6.2491 C   0  0  0  0  0  0  0  0  0  0  0  0
   16.2191   -2.7822   -6.5304 C   0  0  0  0  0  0  0  0  0  0  0  0
   17.0735   -2.6406   -7.6179 C   0  0  0  0  0  0  0  0  0  0  0  0
   17.2893   -3.7629   -8.4407 C   0  0  0  0  0  0  0  0  0  0  0  0
   18.1147   -3.8410   -9.4908 O   0  0  0  0  0  0  0  0  0  0  0  0
   18.0479   -5.1775   -9.9625 C   0  0  0  0  0  0  0  0  0  0  0  0
   18.8017   -5.7795  -10.9704 C   0  0  0  0  0  0  0  0  0  0  0  0
   18.6269   -7.1521  -11.1779 C   0  0  0  0  0  0  0  0  0  0  0  0
   17.7157   -7.9591  -10.4056 C   0  0  0  0  0  0  0  0  0  0  0  0
   17.5574   -9.3797  -10.4348 C   0  0  0  0  0  0  0  0  0  0  0  0
   18.1733  -10.4373  -11.1090 C   0  0  0  0  0  0  0  0  0  0  0  0
   18.0584  -11.7771  -10.5688 C   0  0  0  0  0  0  0  0  0  0  0  0
   17.8137  -11.9149   -9.1743 C   0  0  0  0  0  0  0  0  0  0  0  0
   17.5577  -13.1212   -8.5229 C   0  0  0  0  0  0  0  0  0  0  0  0
   17.2874  -13.0092   -7.0655 C   0  0  0  0  0  0  0  0  0  0  0  0
   18.1130  -12.3195   -6.2478 C   0  0  0  0  0  0  0  0  0  0  0  0
   17.8627  -11.7759   -4.8985 C   0  0  0  0  0  0  0  0  0  0  0  0
   18.9641  -11.6317   -4.0136 C   0  0  0  0  0  0  0  0  0  0  0  0
   18.8711  -10.9570   -2.7989 C   0  0  0  0  0  0  0  0  0  0  0  0
   17.6359  -10.4009   -2.4860 C   0  0  0  0  0  0  0  0  0  0  0  0
   17.3821   -9.6025   -1.3953 O   0  0  0  0  0  0  0  0  0  0  0  0
   16.0923   -9.1874   -1.5155 C   0  0  0  0  0  0  0  0  0  0  0  0
   15.4490   -8.3138   -0.6449 C   0  0  0  0  0  0  0  0  0  0  0  0
   14.1265   -7.9834   -0.9365 C   0  0  0  0  0  0  0  0  0  0  0  0
   13.4494   -8.5252   -2.0563 C   0  0  0  0  0  0  0  0  0  0  0  0
   12.0121   -8.2322   -2.2585 C   0  0  0  0  0  0  0  0  0  0  0  0
   11.3652   -7.0519   -2.1574 C   0  0  0  0  0  0  0  0  0  0  0  0
   11.9466   -5.6936   -2.0908 C   0  0  0  0  0  0  0  0  0  0  0  0
   12.8973   -5.2669   -2.9990 C   0  0  0  0  0  0  0  0  0  0  0  0
   14.1253   -9.4201   -2.9092 C   0  0  0  0  0  0  0  0  0  0  0  0
   15.4666   -9.7381   -2.6586 C   0  0  0  0  0  0  0  0  0  0  0  0
   16.5017  -10.5362   -3.3112 C   0  0  0  0  0  0  0  0  0  0  0  0
   16.6167  -11.2404   -4.5210 C   0  0  0  0  0  0  0  0  0  0  0  0
   17.5548  -14.3207   -9.2831 C   0  0  0  0  0  0  0  0  0  0  0  0
   17.2436  -15.6612   -8.6328 C   0  0  1  0  0  0  0  0  0  0  0  0
   15.7447  -16.0166   -8.5927 C   0  0  0  0  0  0  0  0  0  0  0  0
   15.0834  -16.2513   -9.9518 C   0  0  0  0  0  0  0  0  0  0  0  0
   13.6025  -16.6279   -9.8409 C   0  0  0  0  0  0  0  0  0  0  0  0
   12.9324  -16.8860  -11.1913 C   0  0  0  0  0  0  0  0  0  0  0  0
   17.9043  -16.7570   -9.2545 O   0  0  0  0  0  0  0  0  0  0  0  0
   19.2896  -16.8467   -9.0046 C   0  0  0  0  0  0  0  0  0  0  0  0
   19.8442  -18.0945   -9.6807 C   0  0  0  0  0  0  0  0  0  0  0  0
   19.7161  -18.0841  -11.2045 C   0  0  0  0  0  0  0  0  0  0  0  0
   17.8774  -14.2182  -10.6503 C   0  0  0  0  0  0  0  0  0  0  0  0
   18.1376  -13.0079  -11.3014 C   0  0  0  0  0  0  0  0  0  0  0  0
   18.5029  -12.9993  -12.7779 C   0  0  1  0  0  0  0  0  0  0  0  0
   20.0234  -12.9876  -12.9985 C   0  0  0  0  0  0  0  0  0  0  0  0
   20.4412  -12.8255  -14.4615 C   0  0  0  0  0  0  0  0  0  0  0  0
   21.9574  -12.8536  -14.6771 C   0  0  0  0  0  0  0  0  0  0  0  0
   22.3696  -12.6913  -16.1411 C   0  0  0  0  0  0  0  0  0  0  0  0
   17.9924  -14.1222  -13.4893 O   0  0  0  0  0  0  0  0  0  0  0  0
   16.6232  -14.0583  -13.8147 C   0  0  0  0  0  0  0  0  0  0  0  0
   16.2408  -15.3091  -14.5946 C   0  0  0  0  0  0  0  0  0  0  0  0
   14.7757  -15.3162  -15.0305 C   0  0  0  0  0  0  0  0  0  0  0  0
   16.9391   -7.2679   -9.4270 C   0  0  0  0  0  0  0  0  0  0  0  0
   17.1320   -5.9194   -9.2013 C   0  0  0  0  0  0  0  0  0  0  0  0
   16.6347   -5.0003   -8.1970 C   0  0  0  0  0  0  0  0  0  0  0  0
   15.7868   -5.1251   -7.1188 C   0  0  0  0  0  0  0  0  0  0  0  0
    9.8615   -7.8937    5.1933 H   0  0  0  0  0  0  0  0  0  0  0  0
    8.5698   -7.1267    4.2526 H   0  0  0  0  0  0  0  0  0  0  0  0
    9.0403   -6.4498    5.8272 H   0  0  0  0  0  0  0  0  0  0  0  0
   10.8485   -6.5340    3.3190 H   0  0  0  0  0  0  0  0  0  0  0  0
   11.3554   -5.9430    4.8919 H   0  0  0  0  0  0  0  0  0  0  0  0
   10.8464   -4.0389    3.4867 H   0  0  0  0  0  0  0  0  0  0  0  0
    9.7213   -4.0983    4.8290 H   0  0  0  0  0  0  0  0  0  0  0  0
    8.5095   -3.4475    2.8316 H   0  0  0  0  0  0  0  0  0  0  0  0
    7.9154   -4.9880    3.4167 H   0  0  0  0  0  0  0  0  0  0  0  0
    9.3579   -6.1507    1.6378 H   0  0  0  0  0  0  0  0  0  0  0  0
    7.1419   -4.2189    0.7633 H   0  0  0  0  0  0  0  0  0  0  0  0
    6.9019   -5.7859    1.5237 H   0  0  0  0  0  0  0  0  0  0  0  0
    8.0958   -5.3444   -1.2919 H   0  0  0  0  0  0  0  0  0  0  0  0
    6.5021   -6.0098   -0.8856 H   0  0  0  0  0  0  0  0  0  0  0  0
    7.9755   -6.9237   -0.4892 H   0  0  0  0  0  0  0  0  0  0  0  0
   10.8031   -3.9933    1.3541 H   0  0  0  0  0  0  0  0  0  0  0  0
    9.5015   -3.4472    0.2595 H   0  0  0  0  0  0  0  0  0  0  0  0
   11.5484   -2.6934   -0.4259 H   0  0  0  0  0  0  0  0  0  0  0  0
   13.0910   -1.0245   -0.2339 H   0  0  0  0  0  0  0  0  0  0  0  0
   11.8051   -0.6417   -1.4119 H   0  0  0  0  0  0  0  0  0  0  0  0
   13.0052    1.3328   -0.9944 H   0  0  0  0  0  0  0  0  0  0  0  0
   15.0045    0.4838    0.0377 H   0  0  0  0  0  0  0  0  0  0  0  0
   15.3503    1.7459   -1.1351 H   0  0  0  0  0  0  0  0  0  0  0  0
   15.8579   -1.2706   -1.5870 H   0  0  0  0  0  0  0  0  0  0  0  0
   17.0742   -0.0235   -1.2406 H   0  0  0  0  0  0  0  0  0  0  0  0
   16.1946    0.0044   -2.7779 H   0  0  0  0  0  0  0  0  0  0  0  0
   14.0492    0.3066   -3.6855 H   0  0  0  0  0  0  0  0  0  0  0  0
   13.9797    1.9915   -3.1825 H   0  0  0  0  0  0  0  0  0  0  0  0
   11.5548    0.1384   -3.6180 H   0  0  0  0  0  0  0  0  0  0  0  0
   12.1473    1.3615   -4.7251 H   0  0  0  0  0  0  0  0  0  0  0  0
   11.6693    3.1522   -3.0063 H   0  0  0  0  0  0  0  0  0  0  0  0
   10.9945    1.9335   -1.9293 H   0  0  0  0  0  0  0  0  0  0  0  0
    9.9027    2.6019   -4.7394 H   0  0  0  0  0  0  0  0  0  0  0  0
    9.1644    3.0731   -3.1917 H   0  0  0  0  0  0  0  0  0  0  0  0
    9.2339    1.3590   -3.6610 H   0  0  0  0  0  0  0  0  0  0  0  0
   14.6129   -2.4456   -4.0386 H   0  0  0  0  0  0  0  0  0  0  0  0
   14.3279   -5.3138   -5.1387 H   0  0  0  0  0  0  0  0  0  0  0  0
   16.0532   -1.9259   -5.8730 H   0  0  0  0  0  0  0  0  0  0  0  0
   17.5805   -1.6965   -7.8243 H   0  0  0  0  0  0  0  0  0  0  0  0
   19.5207   -5.2099  -11.5629 H   0  0  0  0  0  0  0  0  0  0  0  0
   19.2365   -7.6403  -11.9423 H   0  0  0  0  0  0  0  0  0  0  0  0
   16.8277   -9.7036   -9.6873 H   0  0  0  0  0  0  0  0  0  0  0  0
   18.7609  -10.2646  -12.0162 H   0  0  0  0  0  0  0  0  0  0  0  0
   17.8305  -11.0129   -8.5656 H   0  0  0  0  0  0  0  0  0  0  0  0
   16.3428  -13.4094   -6.6719 H   0  0  0  0  0  0  0  0  0  0  0  0
   19.0901  -12.0400   -6.6595 H   0  0  0  0  0  0  0  0  0  0  0  0
   19.9290  -12.0460   -4.3168 H   0  0  0  0  0  0  0  0  0  0  0  0
   19.7305  -10.8325   -2.1379 H   0  0  0  0  0  0  0  0  0  0  0  0
   15.9648   -7.9148    0.2301 H   0  0  0  0  0  0  0  0  0  0  0  0
   13.5812   -7.3192   -0.2632 H   0  0  0  0  0  0  0  0  0  0  0  0
   11.3850   -9.1087   -2.4632 H   0  0  0  0  0  0  0  0  0  0  0  0
   10.2703   -7.0764   -2.1848 H   0  0  0  0  0  0  0  0  0  0  0  0
   13.2585   -6.0029   -3.7149 H   0  0  0  0  0  0  0  0  0  0  0  0
   13.6049   -9.8541   -3.7672 H   0  0  0  0  0  0  0  0  0  0  0  0
   15.7725  -11.3051   -5.2111 H   0  0  0  0  0  0  0  0  0  0  0  0
   17.5803  -15.6029   -7.5763 H   0  0  0  0  0  0  0  0  0  0  0  0
   15.2164  -15.2075   -8.0579 H   0  0  0  0  0  0  0  0  0  0  0  0
   15.6367  -16.9266   -7.9748 H   0  0  0  0  0  0  0  0  0  0  0  0
   15.6295  -17.0516  -10.4792 H   0  0  0  0  0  0  0  0  0  0  0  0
   15.1871  -15.3457  -10.5742 H   0  0  0  0  0  0  0  0  0  0  0  0
   13.0598  -15.8240   -9.3093 H   0  0  0  0  0  0  0  0  0  0  0  0
   13.5013  -17.5263   -9.2041 H   0  0  0  0  0  0  0  0  0  0  0  0
   12.9781  -15.9938  -11.8384 H   0  0  0  0  0  0  0  0  0  0  0  0
   11.8704  -17.1582  -11.0754 H   0  0  0  0  0  0  0  0  0  0  0  0
   13.4298  -17.7078  -11.7334 H   0  0  0  0  0  0  0  0  0  0  0  0
   19.4729  -16.8975   -7.9101 H   0  0  0  0  0  0  0  0  0  0  0  0
   19.8139  -15.9437   -9.3759 H   0  0  0  0  0  0  0  0  0  0  0  0
   19.3228  -18.9756   -9.2664 H   0  0  0  0  0  0  0  0  0  0  0  0
   20.9053  -18.1924   -9.3894 H   0  0  0  0  0  0  0  0  0  0  0  0
   18.6608  -18.0116  -11.5073 H   0  0  0  0  0  0  0  0  0  0  0  0
   20.1370  -19.0009  -11.6483 H   0  0  0  0  0  0  0  0  0  0  0  0
   20.2455  -17.2229  -11.6449 H   0  0  0  0  0  0  0  0  0  0  0  0
   17.9242  -15.1344  -11.2424 H   0  0  0  0  0  0  0  0  0  0  0  0
   18.0827  -12.0757  -13.2280 H   0  0  0  0  0  0  0  0  0  0  0  0
   20.4285  -13.9307  -12.5908 H   0  0  0  0  0  0  0  0  0  0  0  0
   20.4528  -12.1762  -12.3870 H   0  0  0  0  0  0  0  0  0  0  0  0
   20.0357  -11.8731  -14.8535 H   0  0  0  0  0  0  0  0  0  0  0  0
   19.9671  -13.6254  -15.0545 H   0  0  0  0  0  0  0  0  0  0  0  0
   22.3612  -13.8051  -14.2849 H   0  0  0  0  0  0  0  0  0  0  0  0
   22.4291  -12.0581  -14.0710 H   0  0  0  0  0  0  0  0  0  0  0  0
   21.9397  -13.4911  -16.7676 H   0  0  0  0  0  0  0  0  0  0  0  0
   23.4646  -12.7242  -16.2636 H   0  0  0  0  0  0  0  0  0  0  0  0
   22.0177  -11.7297  -16.5522 H   0  0  0  0  0  0  0  0  0  0  0  0
   16.4171  -13.1517  -14.4237 H   0  0  0  0  0  0  0  0  0  0  0  0
   16.0027  -13.9733  -12.9001 H   0  0  0  0  0  0  0  0  0  0  0  0
   16.4572  -16.1911  -13.9679 H   0  0  0  0  0  0  0  0  0  0  0  0
   16.9029  -15.3863  -15.4743 H   0  0  0  0  0  0  0  0  0  0  0  0
   14.0962  -15.2682  -14.1630 H   0  0  0  0  0  0  0  0  0  0  0  0
   14.5291  -16.2313  -15.5919 H   0  0  0  0  0  0  0  0  0  0  0  0
   14.5422  -14.4557  -15.6803 H   0  0  0  0  0  0  0  0  0  0  0  0
   16.2395   -7.8366   -8.8100 H   0  0  0  0  0  0  0  0  0  0  0  0
   15.2983   -6.0801   -6.9127 H   0  0  0  0  0  0  0  0  0  0  0  0
  1  2  1  0
  1 83  1  0
  1 84  1  0
  1 85  1  0
  2  3  1  0
  2 86  1  0
  2 87  1  0
  3  4  1  0
  3 88  1  0
  3 89  1  0
  4  5  1  0
  4 90  1  0
  4 91  1  0
  5  6  1  0
  5  8  1  0
  5 92  1  1
  6  7  1  0
  6 93  1  0
  6 94  1  0
  7 95  1  0
  7 96  1  0
  7 97  1  0
  8  9  1  0
  8 98  1  0
  8 99  1  0
  9 10  1  0
 10 11  2  0
 10 52  1  0
 11 12  1  0
 11100  1  0
 12 13  1  0
 12 22  2  0
 13 14  1  0
 14 15  1  0
 14101  1  0
 14102  1  0
 15 16  1  0
 15 18  1  0
 15103  1  1
 16 17  1  0
 16104  1  0
 16105  1  0
 17106  1  0
 17107  1  0
 17108  1  0
 18 19  1  0
 18109  1  0
 18110  1  0
 19 20  1  0
 19111  1  0
 19112  1  0
 20 21  1  0
 20113  1  0
 20114  1  0
 21115  1  0
 21116  1  0
 21117  1  0
 22 23  1  0
 22 53  1  0
 23 24  2  0
 23118  1  0
 24 25  1  0
 24119  1  0
 25 26  2  0
 25 82  1  0
 26 27  1  0
 26120  1  0
 27 28  2  0
 27121  1  0
 28 29  1  0
 28 81  1  0
 29 30  1  0
 30 31  1  0
 30 80  2  0
 31 32  2  0
 31122  1  0
 32 33  1  0
 32123  1  0
 33 34  1  0
 33 79  2  0
 34 35  2  0
 34124  1  0
 35 36  1  0
 35125  1  0
 36 37  1  0
 36 69  2  0
 37 38  2  0
 37126  1  0
 38 39  1  0
 38 58  1  0
 39 40  2  0
 39127  1  0
 40 41  1  0
 40128  1  0
 41 42  1  0
 41 57  2  0
 42 43  2  0
 42129  1  0
 43 44  1  0
 43130  1  0
 44 45  1  0
 44 56  2  0
 45 46  1  0
 46 47  2  0
 46 55  1  0
 47 48  1  0
 47131  1  0
 48 49  2  0
 48132  1  0
 49 50  1  0
 49 54  1  0
 50 51  2  0
 50133  1  0
 51 52  1  0
 51134  1  0
 52 53  2  0
 53135  1  0
 54 55  2  0
 54136  1  0
 55 56  1  0
 56 57  1  0
 57137  1  0
 58 59  1  0
 58 68  2  0
 59 60  1  0
 59 64  1  0
 59138  1  1
 60 61  1  0
 60139  1  0
 60140  1  0
 61 62  1  0
 61141  1  0
 61142  1  0
 62 63  1  0
 62143  1  0
 62144  1  0
 63145  1  0
 63146  1  0
 63147  1  0
 64 65  1  0
 65 66  1  0
 65148  1  0
 65149  1  0
 66 67  1  0
 66150  1  0
 66151  1  0
 67152  1  0
 67153  1  0
 67154  1  0
 68 69  1  0
 68155  1  0
 69 70  1  0
 70 71  1  0
 70 75  1  0
 70156  1  6
 71 72  1  0
 71157  1  0
 71158  1  0
 72 73  1  0
 72159  1  0
 72160  1  0
 73 74  1  0
 73161  1  0
 73162  1  0
 74163  1  0
 74164  1  0
 74165  1  0
 75 76  1  0
 76 77  1  0
 76166  1  0
 76167  1  0
 77 78  1  0
 77168  1  0
 77169  1  0
 78170  1  0
 78171  1  0
 78172  1  0
 79 80  1  0
 79173  1  0
 80 81  1  0
 81 82  2  0
 82174  1  0
M  END

