
     RDKit          3D

 43 46  0  0  0  0  0  0  0  0999 V2000
   -0.3072   -1.0371   -2.1977 C   0  0  0  0  0  0  0  0  0  0  0  0
    1.1878   -0.9196   -2.3943 C   0  0  0  0  0  0  0  0  0  0  0  0
    1.7004    0.0804   -3.2588 C   0  0  0  0  0  0  0  0  0  0  0  0
    3.0998    0.1552   -3.4705 C   0  0  0  0  0  0  0  0  0  0  0  0
    3.9726   -0.7079   -2.8411 C   0  0  0  0  0  0  0  0  0  0  0  0
    3.4896   -1.7140   -1.9308 C   0  0  0  0  0  0  0  0  0  0  0  0
    4.4211   -2.5565   -1.2609 C   0  0  0  0  0  0  0  0  0  0  0  0
    5.6611   -2.6048   -1.4332 O   0  0  0  0  0  0  0  0  0  0  0  0
    3.8635   -3.4480   -0.2388 N   0  0  0  0  0  0  0  0  0  0  0  0
    4.8295   -4.1998    0.4847 C   0  0  2  0  0  0  0  0  0  0  0  0
    4.2104   -5.3940    1.2904 C   0  0  0  0  0  0  0  0  0  0  0  0
    5.2245   -5.6052    2.3522 C   0  0  0  0  0  0  0  0  0  0  0  0
    5.5399   -6.5585    3.2325 N   0  0  0  0  0  0  0  0  0  0  0  0
    5.0717   -7.4520    3.3399 H   0  0  0  0  0  0  0  0  0  0  0  0
    6.6548   -6.1266    3.9908 C   0  0  0  0  0  0  0  0  0  0  0  0
    7.3398   -6.7595    5.0067 C   0  0  0  0  0  0  0  0  0  0  0  0
    8.4309   -6.0697    5.5772 C   0  0  0  0  0  0  0  0  0  0  0  0
    8.8369   -4.7864    5.1533 C   0  0  0  0  0  0  0  0  0  0  0  0
   10.0162   -4.1119    5.8104 C   0  0  0  0  0  0  0  0  0  0  0  0
    8.1258   -4.1657    4.1202 C   0  0  0  0  0  0  0  0  0  0  0  0
    7.0251   -4.8246    3.5264 C   0  0  0  0  0  0  0  0  0  0  0  0
    6.1194   -4.4941    2.4900 C   0  0  0  0  0  0  0  0  0  0  0  0
    5.7594   -3.4403    1.5073 C   0  0  0  0  0  0  0  0  0  0  0  0
    2.0571   -1.7892   -1.7520 C   0  0  0  0  0  0  0  0  0  0  0  0
   -0.8245   -1.2545   -3.1492 H   0  0  0  0  0  0  0  0  0  0  0  0
   -0.7395   -0.0950   -1.8157 H   0  0  0  0  0  0  0  0  0  0  0  0
   -0.5648   -1.8377   -1.4862 H   0  0  0  0  0  0  0  0  0  0  0  0
    1.0225    0.7715   -3.7653 H   0  0  0  0  0  0  0  0  0  0  0  0
    3.4967    0.9157   -4.1513 H   0  0  0  0  0  0  0  0  0  0  0  0
    5.0493   -0.6465   -3.0080 H   0  0  0  0  0  0  0  0  0  0  0  0
    3.1645   -2.9878    0.3412 H   0  0  0  0  0  0  0  0  0  0  0  0
    5.5205   -4.6177   -0.2622 H   0  0  0  0  0  0  0  0  0  0  0  0
    4.0029   -6.2807    0.6741 H   0  0  0  0  0  0  0  0  0  0  0  0
    3.2541   -5.0970    1.7596 H   0  0  0  0  0  0  0  0  0  0  0  0
    7.0640   -7.7527    5.3654 H   0  0  0  0  0  0  0  0  0  0  0  0
    8.9857   -6.5571    6.3825 H   0  0  0  0  0  0  0  0  0  0  0  0
   10.9257   -4.7267    5.7198 H   0  0  0  0  0  0  0  0  0  0  0  0
    9.8344   -3.9552    6.8858 H   0  0  0  0  0  0  0  0  0  0  0  0
   10.2244   -3.1328    5.3576 H   0  0  0  0  0  0  0  0  0  0  0  0
    8.4160   -3.1746    3.7665 H   0  0  0  0  0  0  0  0  0  0  0  0
    6.6000   -2.9611    0.9879 H   0  0  0  0  0  0  0  0  0  0  0  0
    5.2035   -2.6331    2.0210 H   0  0  0  0  0  0  0  0  0  0  0  0
    1.6337   -2.5839   -1.1317 H   0  0  0  0  0  0  0  0  0  0  0  0
  1  2  1  0
  1 25  1  0
  1 26  1  0
  1 27  1  0
  2  3  2  0
  2 24  1  0
  3  4  1  0
  3 28  1  0
  4  5  2  0
  4 29  1  0
  5  6  1  0
  5 30  1  0
  6  7  1  0
  6 24  2  0
  7  8  2  0
  7  9  1  0
  9 10  1  0
  9 31  1  0
 10 11  1  0
 10 23  1  0
 10 32  1  6
 11 12  1  0
 11 33  1  0
 11 34  1  0
 12 13  1  0
 12 22  2  0
 13 14  1  0
 13 15  1  0
 15 16  1  0
 15 21  2  0
 16 17  2  0
 16 35  1  0
 17 18  1  0
 17 36  1  0
 18 19  1  0
 18 20  2  0
 19 37  1  0
 19 38  1  0
 19 39  1  0
 20 21  1  0
 20 40  1  0
 21 22  1  0
 22 23  1  0
 23 41  1  0
 23 42  1  0
 24 43  1  0
M  END

