
     RDKit          3D

 49 52  0  0  0  0  0  0  0  0999 V2000
    3.6533    1.7494    2.1145 C   0  0  0  0  0  0  0  0  0  0  0  0
    4.3735    0.6490    1.3256 C   0  0  0  0  0  0  0  0  0  0  0  0
    4.5178   -0.6288    2.0954 C   0  0  0  0  0  0  0  0  0  0  0  0
    5.1709   -0.7072    3.2935 N   0  0  0  0  0  0  0  0  0  0  0  0
    5.0641   -1.9826    3.6226 C   0  0  0  0  0  0  0  0  0  0  0  0
    4.3613   -2.6396    2.6622 N   0  0  0  0  0  0  0  0  0  0  0  0
    4.0126   -1.7832    1.6764 N   0  0  0  0  0  0  0  0  0  0  0  0
    4.0944   -4.0690    2.5921 C   0  0  0  0  0  0  0  0  0  0  0  0
    4.2240   -4.6872    3.9874 C   0  0  2  0  0  0  0  0  0  0  0  0
    3.0388   -4.3996    4.7838 N   0  0  0  0  0  0  0  0  0  0  0  0
    2.7046   -5.1920    5.8685 C   0  0  0  0  0  0  0  0  0  0  0  0
    3.3133   -6.2324    6.1158 O   0  0  0  0  0  0  0  0  0  0  0  0
    1.5170   -4.7477    6.6875 C   0  0  0  0  0  0  0  0  0  0  0  0
    0.4901   -5.9238    6.8919 C   0  0  2  0  0  0  0  0  0  0  0  0
   -0.2153   -6.3462    5.5968 C   0  0  0  0  0  0  0  0  0  0  0  0
   -1.3471   -5.3956    5.2548 C   0  0  0  0  0  0  0  0  0  0  0  0
   -2.2905   -5.2475    6.3279 O   0  0  0  0  0  0  0  0  0  0  0  0
   -1.8685   -5.2471    7.6002 C   0  0  0  0  0  0  0  0  0  0  0  0
   -2.8536   -4.8881    8.5610 C   0  0  0  0  0  0  0  0  0  0  0  0
   -2.4723   -4.8196    9.9223 C   0  0  0  0  0  0  0  0  0  0  0  0
   -1.1393   -5.1307   10.2804 C   0  0  0  0  0  0  0  0  0  0  0  0
   -0.1663   -5.5134    9.3249 C   0  0  0  0  0  0  0  0  0  0  0  0
   -0.5153   -5.5975    7.9410 C   0  0  0  0  0  0  0  0  0  0  0  0
    5.5323   -4.2118    4.6590 C   0  0  0  0  0  0  0  0  0  0  0  0
    5.5516   -2.6875    4.8518 C   0  0  0  0  0  0  0  0  0  0  0  0
    3.6125    2.6866    1.5373 H   0  0  0  0  0  0  0  0  0  0  0  0
    4.1763    1.9500    3.0621 H   0  0  0  0  0  0  0  0  0  0  0  0
    2.6194    1.4542    2.3562 H   0  0  0  0  0  0  0  0  0  0  0  0
    5.3815    1.0033    1.0474 H   0  0  0  0  0  0  0  0  0  0  0  0
    3.8416    0.4228    0.3891 H   0  0  0  0  0  0  0  0  0  0  0  0
    4.8122   -4.5406    1.9000 H   0  0  0  0  0  0  0  0  0  0  0  0
    3.0849   -4.2149    2.1809 H   0  0  0  0  0  0  0  0  0  0  0  0
    4.2675   -5.7815    3.8871 H   0  0  0  0  0  0  0  0  0  0  0  0
    2.6207   -3.4792    4.7098 H   0  0  0  0  0  0  0  0  0  0  0  0
    1.0236   -3.8584    6.2605 H   0  0  0  0  0  0  0  0  0  0  0  0
    1.8647   -4.4671    7.6997 H   0  0  0  0  0  0  0  0  0  0  0  0
    1.1246   -6.7618    7.2340 H   0  0  0  0  0  0  0  0  0  0  0  0
   -0.6220   -7.3645    5.7100 H   0  0  0  0  0  0  0  0  0  0  0  0
    0.4900   -6.3716    4.7501 H   0  0  0  0  0  0  0  0  0  0  0  0
   -1.9440   -5.7371    4.3974 H   0  0  0  0  0  0  0  0  0  0  0  0
   -0.9704   -4.3832    5.0185 H   0  0  0  0  0  0  0  0  0  0  0  0
   -3.8628   -4.6658    8.2145 H   0  0  0  0  0  0  0  0  0  0  0  0
   -3.1926   -4.5258   10.6868 H   0  0  0  0  0  0  0  0  0  0  0  0
   -0.8515   -5.0853   11.3346 H   0  0  0  0  0  0  0  0  0  0  0  0
    0.8346   -5.8057    9.6470 H   0  0  0  0  0  0  0  0  0  0  0  0
    6.3804   -4.5217    4.0240 H   0  0  0  0  0  0  0  0  0  0  0  0
    5.6450   -4.7296    5.6219 H   0  0  0  0  0  0  0  0  0  0  0  0
    6.5587   -2.3222    5.1035 H   0  0  0  0  0  0  0  0  0  0  0  0
    4.9064   -2.4027    5.7019 H   0  0  0  0  0  0  0  0  0  0  0  0
  1  2  1  0
  1 26  1  0
  1 27  1  0
  1 28  1  0
  2  3  1  0
  2 29  1  0
  2 30  1  0
  3  4  1  0
  3  7  2  0
  4  5  2  0
  5  6  1  0
  5 25  1  0
  6  7  1  0
  6  8  1  0
  8  9  1  0
  8 31  1  0
  8 32  1  0
  9 10  1  0
  9 24  1  0
  9 33  1  6
 10 11  1  0
 10 34  1  0
 11 12  2  0
 11 13  1  0
 13 14  1  0
 13 35  1  0
 13 36  1  0
 14 15  1  0
 14 23  1  0
 14 37  1  1
 15 16  1  0
 15 38  1  0
 15 39  1  0
 16 17  1  0
 16 40  1  0
 16 41  1  0
 17 18  1  0
 18 19  2  0
 18 23  1  0
 19 20  1  0
 19 42  1  0
 20 21  2  0
 20 43  1  0
 21 22  1  0
 21 44  1  0
 22 23  2  0
 22 45  1  0
 24 25  1  0
 24 46  1  0
 24 47  1  0
 25 48  1  0
 25 49  1  0
M  END

