
     RDKit          3D

 37 39  0  0  0  0  0  0  0  0999 V2000
    0.9552    0.2322    0.2324 C   0  0  0  0  0  0  0  0  0  0  0  0
    2.4549    0.0420    0.1052 C   0  0  1  0  0  0  0  0  0  0  0  0
    3.0644    1.2227    0.6347 O   0  0  0  0  0  0  0  0  0  0  0  0
    4.4128    1.1834    0.8208 C   0  0  0  0  0  0  0  0  0  0  0  0
    5.1150    2.3807    0.9969 C   0  0  0  0  0  0  0  0  0  0  0  0
    6.4974    2.3620    1.1892 C   0  0  0  0  0  0  0  0  0  0  0  0
    7.1886    1.1444    1.2025 C   0  0  0  0  0  0  0  0  0  0  0  0
    6.4921   -0.0548    1.0393 C   0  0  0  0  0  0  0  0  0  0  0  0
    5.1073   -0.0381    0.8535 C   0  0  0  0  0  0  0  0  0  0  0  0
    4.4412   -1.2270    0.7043 O   0  0  0  0  0  0  0  0  0  0  0  0
    3.0236   -1.1855    0.8461 C   0  0  2  0  0  0  0  0  0  0  0  0
    2.4390   -2.5121    0.3406 C   0  0  0  0  0  0  0  0  0  0  0  0
    1.2677   -2.7947    0.5542 O   0  0  0  0  0  0  0  0  0  0  0  0
    3.2964   -3.2888   -0.3616 N   0  0  0  0  0  0  0  0  0  0  0  0
    2.9127   -4.5932   -0.8834 C   0  0  0  0  0  0  0  0  0  0  0  0
    3.2193   -5.7359    0.0697 C   0  0  0  0  0  0  0  0  0  0  0  0
    2.3892   -5.9927    1.1745 C   0  0  0  0  0  0  0  0  0  0  0  0
    2.7244   -7.0386    2.0337 C   0  0  0  0  0  0  0  0  0  0  0  0
    3.8708   -7.7912    1.7638 C   0  0  0  0  0  0  0  0  0  0  0  0
    4.6312   -7.4561    0.6405 C   0  0  0  0  0  0  0  0  0  0  0  0
    4.3180   -6.4554   -0.1873 N   0  0  0  0  0  0  0  0  0  0  0  0
    0.6687    1.1634   -0.2785 H   0  0  0  0  0  0  0  0  0  0  0  0
    0.6686    0.3166    1.2916 H   0  0  0  0  0  0  0  0  0  0  0  0
    0.4105   -0.6133   -0.2048 H   0  0  0  0  0  0  0  0  0  0  0  0
    2.7451   -0.0556   -0.9596 H   0  0  0  0  0  0  0  0  0  0  0  0
    4.5509    3.3155    0.9724 H   0  0  0  0  0  0  0  0  0  0  0  0
    7.0371    3.3023    1.3232 H   0  0  0  0  0  0  0  0  0  0  0  0
    8.2711    1.1259    1.3473 H   0  0  0  0  0  0  0  0  0  0  0  0
    7.0023   -1.0203    1.0601 H   0  0  0  0  0  0  0  0  0  0  0  0
    2.7562   -1.1018    1.9156 H   0  0  0  0  0  0  0  0  0  0  0  0
    4.2712   -3.0071   -0.3775 H   0  0  0  0  0  0  0  0  0  0  0  0
    3.4592   -4.7749   -1.8193 H   0  0  0  0  0  0  0  0  0  0  0  0
    1.8347   -4.5515   -1.0931 H   0  0  0  0  0  0  0  0  0  0  0  0
    1.5080   -5.3699    1.3437 H   0  0  0  0  0  0  0  0  0  0  0  0
    2.0984   -7.2663    2.9007 H   0  0  0  0  0  0  0  0  0  0  0  0
    4.1708   -8.6215    2.4072 H   0  0  0  0  0  0  0  0  0  0  0  0
    5.5367   -8.0251    0.3969 H   0  0  0  0  0  0  0  0  0  0  0  0
  1  2  1  0
  1 22  1  0
  1 23  1  0
  1 24  1  0
  2  3  1  0
  2 11  1  0
  2 25  1  6
  3  4  1  0
  4  5  1  0
  4  9  2  0
  5  6  2  0
  5 26  1  0
  6  7  1  0
  6 27  1  0
  7  8  2  0
  7 28  1  0
  8  9  1  0
  8 29  1  0
  9 10  1  0
 10 11  1  0
 11 12  1  0
 11 30  1  1
 12 13  2  0
 12 14  1  0
 14 15  1  0
 14 31  1  0
 15 16  1  0
 15 32  1  0
 15 33  1  0
 16 17  2  0
 16 21  1  0
 17 18  1  0
 17 34  1  0
 18 19  2  0
 18 35  1  0
 19 20  1  0
 19 36  1  0
 20 21  2  0
 20 37  1  0
M  END

