
     RDKit          3D

 52 53  0  0  0  0  0  0  0  0999 V2000
    1.1186   -0.7588    0.3685 C   0  0  0  0  0  0  0  0  0  0  0  0
    2.5837   -0.3969    0.0763 C   0  0  1  0  0  0  0  0  0  0  0  0
    3.4375   -1.6347   -0.2747 C   0  0  0  0  0  0  0  0  0  0  0  0
    3.2030   -2.1346   -1.7081 C   0  0  0  0  0  0  0  0  0  0  0  0
    3.4765   -1.0428   -2.7716 C   0  0  2  0  0  0  0  0  0  0  0  0
    4.9782   -0.6444   -2.8974 C   0  0  1  0  0  0  0  0  0  0  0  0
    5.8936   -1.8777   -2.9833 C   0  0  0  0  0  0  0  0  0  0  0  0
    5.2561    0.2660   -4.1055 C   0  0  0  0  0  0  0  0  0  0  0  0
    2.4921    0.1114   -2.4299 C   0  0  2  0  0  0  0  0  0  0  0  0
    2.5191    1.2010   -3.3565 O   0  0  0  0  0  0  0  0  0  0  0  0
    1.7330    1.0523   -4.5083 C   0  0  0  0  0  0  0  0  0  0  0  0
    0.2575    1.4585   -4.2609 C   0  0  0  0  0  0  0  0  0  0  0  0
   -0.5918    0.5983   -4.7718 O   0  0  0  0  0  0  0  0  0  0  0  0
   -0.0427    2.8297   -4.4271 N   0  0  0  0  0  0  0  0  0  0  0  0
    0.6703    3.7703   -3.5664 C   0  0  0  0  0  0  0  0  0  0  0  0
    0.5110    5.1807   -4.1195 C   0  0  0  0  0  0  0  0  0  0  0  0
   -0.8630    5.5160   -4.2689 O   0  0  0  0  0  0  0  0  0  0  0  0
   -1.5678    4.5999   -5.0957 C   0  0  2  0  0  0  0  0  0  0  0  0
   -3.0288    5.0582   -5.1827 C   0  0  0  0  0  0  0  0  0  0  0  0
   -3.8751    4.4004   -5.7247 O   0  0  0  0  0  0  0  0  0  0  0  0
   -3.2662    6.2451   -4.6174 O   0  0  0  0  0  0  0  0  0  0  0  0
   -1.4552    3.1710   -4.5667 C   0  0  0  0  0  0  0  0  0  0  0  0
    2.7146    0.6775   -1.0265 C   0  0  0  0  0  0  0  0  0  0  0  0
    1.0524   -1.4769    1.2018 H   0  0  0  0  0  0  0  0  0  0  0  0
    0.6099   -1.2139   -0.4963 H   0  0  0  0  0  0  0  0  0  0  0  0
    0.5410    0.1356    0.6522 H   0  0  0  0  0  0  0  0  0  0  0  0
    2.9927    0.0392    1.0045 H   0  0  0  0  0  0  0  0  0  0  0  0
    3.2267   -2.4453    0.4434 H   0  0  0  0  0  0  0  0  0  0  0  0
    4.5050   -1.3864   -0.1447 H   0  0  0  0  0  0  0  0  0  0  0  0
    2.1568   -2.4693   -1.8143 H   0  0  0  0  0  0  0  0  0  0  0  0
    3.8151   -3.0265   -1.9049 H   0  0  0  0  0  0  0  0  0  0  0  0
    3.1776   -1.4570   -3.7528 H   0  0  0  0  0  0  0  0  0  0  0  0
    5.2703   -0.0847   -1.9913 H   0  0  0  0  0  0  0  0  0  0  0  0
    5.5946   -2.5371   -3.8167 H   0  0  0  0  0  0  0  0  0  0  0  0
    5.8945   -2.4802   -2.0630 H   0  0  0  0  0  0  0  0  0  0  0  0
    6.9342   -1.5674   -3.1686 H   0  0  0  0  0  0  0  0  0  0  0  0
    4.9579   -0.2288   -5.0467 H   0  0  0  0  0  0  0  0  0  0  0  0
    6.3334    0.4867   -4.1793 H   0  0  0  0  0  0  0  0  0  0  0  0
    4.7149    1.2179   -4.0408 H   0  0  0  0  0  0  0  0  0  0  0  0
    1.4738   -0.3172   -2.4731 H   0  0  0  0  0  0  0  0  0  0  0  0
    1.7451    0.0200   -4.8900 H   0  0  0  0  0  0  0  0  0  0  0  0
    2.1600    1.7189   -5.2800 H   0  0  0  0  0  0  0  0  0  0  0  0
    1.7346    3.5040   -3.5165 H   0  0  0  0  0  0  0  0  0  0  0  0
    0.2750    3.7290   -2.5289 H   0  0  0  0  0  0  0  0  0  0  0  0
    1.0231    5.2642   -5.0974 H   0  0  0  0  0  0  0  0  0  0  0  0
    0.9440    5.9191   -3.4290 H   0  0  0  0  0  0  0  0  0  0  0  0
   -1.1500    4.6270   -6.1225 H   0  0  0  0  0  0  0  0  0  0  0  0
   -2.4245    6.5500   -4.2250 H   0  0  0  0  0  0  0  0  0  0  0  0
   -1.9377    2.4841   -5.2737 H   0  0  0  0  0  0  0  0  0  0  0  0
   -1.9900    3.0945   -3.5962 H   0  0  0  0  0  0  0  0  0  0  0  0
    1.9842    1.4859   -0.8613 H   0  0  0  0  0  0  0  0  0  0  0  0
    3.7131    1.1434   -0.9829 H   0  0  0  0  0  0  0  0  0  0  0  0
  1  2  1  0
  1 24  1  0
  1 25  1  0
  1 26  1  0
  2  3  1  0
  2 23  1  0
  2 27  1  1
  3  4  1  0
  3 28  1  0
  3 29  1  0
  4  5  1  0
  4 30  1  0
  4 31  1  0
  5  6  1  0
  5  9  1  0
  5 32  1  6
  6  7  1  0
  6  8  1  0
  6 33  1  1
  7 34  1  0
  7 35  1  0
  7 36  1  0
  8 37  1  0
  8 38  1  0
  8 39  1  0
  9 10  1  0
  9 23  1  0
  9 40  1  1
 10 11  1  0
 11 12  1  0
 11 41  1  0
 11 42  1  0
 12 13  2  0
 12 14  1  0
 14 15  1  0
 14 22  1  0
 15 16  1  0
 15 43  1  0
 15 44  1  0
 16 17  1  0
 16 45  1  0
 16 46  1  0
 17 18  1  0
 18 19  1  0
 18 22  1  0
 18 47  1  6
 19 20  2  0
 19 21  1  0
 21 48  1  0
 22 49  1  0
 22 50  1  0
 23 51  1  0
 23 52  1  0
M  END

