
     RDKit          3D

 41 43  0  0  0  0  0  0  0  0999 V2000
    3.9265   -2.6578    0.3444 O   0  0  0  0  0  0  0  0  0  0  0  0
    2.8694   -2.0552    0.4838 C   0  0  0  0  0  0  0  0  0  0  0  0
    2.1622   -1.5091   -0.7952 C   0  0  0  0  0  0  0  0  0  0  0  0
    1.7240   -2.5942   -1.6816 N   0  0  0  0  0  0  0  0  0  0  0  0
    0.3311   -3.0235   -1.4586 C   0  0  0  0  0  0  0  0  0  0  0  0
    0.0425   -4.4078   -2.0122 C   0  0  0  0  0  0  0  0  0  0  0  0
    0.5185   -4.4888   -3.4608 C   0  0  0  0  0  0  0  0  0  0  0  0
    1.9759   -4.1239   -3.5442 C   0  0  0  0  0  0  0  0  0  0  0  0
    2.8168   -4.6649   -4.5037 C   0  0  0  0  0  0  0  0  0  0  0  0
    4.1767   -4.3212   -4.5669 C   0  0  0  0  0  0  0  0  0  0  0  0
    4.7242   -3.4250   -3.6279 C   0  0  0  0  0  0  0  0  0  0  0  0
    3.9286   -2.8579   -2.6569 C   0  0  0  0  0  0  0  0  0  0  0  0
    2.5278   -3.1763   -2.5958 C   0  0  0  0  0  0  0  0  0  0  0  0
    2.1981   -1.7740    1.6008 N   0  0  0  0  0  0  0  0  0  0  0  0
    2.6658   -2.1417    2.8530 N   0  0  0  0  0  0  0  0  0  0  0  0
    1.7809   -2.1628    3.8382 C   0  0  0  0  0  0  0  0  0  0  0  0
    0.3774   -1.9263    4.0290 C   0  0  0  0  0  0  0  0  0  0  0  0
   -0.1197   -2.0038    5.3898 C   0  0  0  0  0  0  0  0  0  0  0  0
    0.7873   -2.2872    6.3546 F   0  0  0  0  0  0  0  0  0  0  0  0
   -1.4216   -1.8123    5.7834 C   0  0  0  0  0  0  0  0  0  0  0  0
   -2.4198   -1.5141    4.8251 C   0  0  0  0  0  0  0  0  0  0  0  0
   -2.0224   -1.4295    3.4797 C   0  0  0  0  0  0  0  0  0  0  0  0
   -0.7070   -1.6302    3.1242 C   0  0  0  0  0  0  0  0  0  0  0  0
   -0.4465   -1.5292    1.7587 F   0  0  0  0  0  0  0  0  0  0  0  0
    2.8652   -0.8611   -1.3312 H   0  0  0  0  0  0  0  0  0  0  0  0
    1.2713   -0.9130   -0.5626 H   0  0  0  0  0  0  0  0  0  0  0  0
   -0.3247   -2.2682   -1.9288 H   0  0  0  0  0  0  0  0  0  0  0  0
    0.1529   -2.9678   -0.3760 H   0  0  0  0  0  0  0  0  0  0  0  0
   -1.0367   -4.6020   -1.9340 H   0  0  0  0  0  0  0  0  0  0  0  0
    0.5553   -5.1684   -1.4007 H   0  0  0  0  0  0  0  0  0  0  0  0
   -0.0694   -3.7885   -4.0844 H   0  0  0  0  0  0  0  0  0  0  0  0
    0.3593   -5.4904   -3.8865 H   0  0  0  0  0  0  0  0  0  0  0  0
    2.4075   -5.3778   -5.2227 H   0  0  0  0  0  0  0  0  0  0  0  0
    4.8123   -4.7636   -5.3358 H   0  0  0  0  0  0  0  0  0  0  0  0
    5.7889   -3.1884   -3.6556 H   0  0  0  0  0  0  0  0  0  0  0  0
    4.3647   -2.2362   -1.8796 H   0  0  0  0  0  0  0  0  0  0  0  0
    1.2959   -1.3108    1.5217 H   0  0  0  0  0  0  0  0  0  0  0  0
    2.2768   -2.4288    4.7750 H   0  0  0  0  0  0  0  0  0  0  0  0
   -1.6521   -1.8966    6.8470 H   0  0  0  0  0  0  0  0  0  0  0  0
   -3.4567   -1.3550    5.1185 H   0  0  0  0  0  0  0  0  0  0  0  0
   -2.7377   -1.2080    2.6849 H   0  0  0  0  0  0  0  0  0  0  0  0
  1  2  2  0
  2  3  1  0
  2 14  1  0
  3  4  1  0
  3 25  1  0
  3 26  1  0
  4  5  1  0
  4 13  1  0
  5  6  1  0
  5 27  1  0
  5 28  1  0
  6  7  1  0
  6 29  1  0
  6 30  1  0
  7  8  1  0
  7 31  1  0
  7 32  1  0
  8  9  2  0
  8 13  1  0
  9 10  1  0
  9 33  1  0
 10 11  2  0
 10 34  1  0
 11 12  1  0
 11 35  1  0
 12 13  2  0
 12 36  1  0
 14 15  1  0
 14 37  1  0
 15 16  2  0
 16 17  1  0
 16 38  1  0
 17 18  2  0
 17 23  1  0
 18 19  1  0
 18 20  1  0
 20 21  2  0
 20 39  1  0
 21 22  1  0
 21 40  1  0
 22 23  2  0
 22 41  1  0
 23 24  1  0
M  END

