
     RDKit          3D

 39 41  0  0  0  0  0  0  0  0999 V2000
    0.0630   -1.5121   -0.1996 C   0  0  0  0  0  0  0  0  0  0  0  0
    1.3280   -0.9237    0.2399 N   0  0  0  0  0  0  0  0  0  0  0  0
    1.2218    0.3025    1.0027 C   0  0  0  0  0  0  0  0  0  0  0  0
    0.2575    1.0680    0.7956 O   0  0  0  0  0  0  0  0  0  0  0  0
    2.2017    0.5430    2.0359 C   0  0  0  0  0  0  0  0  0  0  0  0
    3.1813   -0.3903    2.5243 C   0  0  0  0  0  0  0  0  0  0  0  0
    4.0415   -0.0588    3.5591 C   0  0  0  0  0  0  0  0  0  0  0  0
    4.0026    1.2060    4.1825 C   0  0  0  0  0  0  0  0  0  0  0  0
    3.0418    2.1429    3.7110 C   0  0  0  0  0  0  0  0  0  0  0  0
    2.9295    3.4897    4.3671 C   0  0  0  0  0  0  0  0  0  0  0  0
    1.9525    3.5137    5.5200 N   0  0  0  0  0  0  0  0  0  0  0  0
    1.0427    2.6085    5.8454 C   0  0  0  0  0  0  0  0  0  0  0  0
    0.3582    3.1373    7.0187 C   0  0  0  0  0  0  0  0  0  0  0  0
    0.8704    4.3202    7.3500 N   0  0  0  0  0  0  0  0  0  0  0  0
    1.8245    4.5425    6.4496 C   0  0  0  0  0  0  0  0  0  0  0  0
    2.1775    1.8240    2.6766 C   0  0  0  0  0  0  0  0  0  0  0  0
    2.5051   -1.2805   -0.4104 C   0  0  0  0  0  0  0  0  0  0  0  0
    3.5056   -0.3384   -0.7387 C   0  0  0  0  0  0  0  0  0  0  0  0
    4.6662   -0.7332   -1.3920 C   0  0  0  0  0  0  0  0  0  0  0  0
    5.5867    0.2060   -1.6871 F   0  0  0  0  0  0  0  0  0  0  0  0
    4.9058   -2.0515   -1.7697 C   0  0  0  0  0  0  0  0  0  0  0  0
    3.9255   -2.9988   -1.4553 C   0  0  0  0  0  0  0  0  0  0  0  0
    2.7712   -2.6211   -0.7837 C   0  0  0  0  0  0  0  0  0  0  0  0
    1.8823   -3.5856   -0.4552 F   0  0  0  0  0  0  0  0  0  0  0  0
   -0.7131   -0.7505   -0.0505 H   0  0  0  0  0  0  0  0  0  0  0  0
   -0.1935   -2.4245    0.3635 H   0  0  0  0  0  0  0  0  0  0  0  0
    0.0962   -1.7684   -1.2697 H   0  0  0  0  0  0  0  0  0  0  0  0
    3.2364   -1.3876    2.0876 H   0  0  0  0  0  0  0  0  0  0  0  0
    4.7712   -0.7995    3.8995 H   0  0  0  0  0  0  0  0  0  0  0  0
    4.7041    1.4617    4.9792 H   0  0  0  0  0  0  0  0  0  0  0  0
    2.5706    4.2618    3.6716 H   0  0  0  0  0  0  0  0  0  0  0  0
    3.8840    3.8266    4.7967 H   0  0  0  0  0  0  0  0  0  0  0  0
    0.9031    1.6889    5.2838 H   0  0  0  0  0  0  0  0  0  0  0  0
   -0.4560    2.6616    7.5635 H   0  0  0  0  0  0  0  0  0  0  0  0
    2.4620    5.4252    6.4140 H   0  0  0  0  0  0  0  0  0  0  0  0
    1.4384    2.5398    2.3072 H   0  0  0  0  0  0  0  0  0  0  0  0
    3.3686    0.7125   -0.4870 H   0  0  0  0  0  0  0  0  0  0  0  0
    5.8295   -2.3202   -2.2832 H   0  0  0  0  0  0  0  0  0  0  0  0
    4.0533   -4.0535   -1.7079 H   0  0  0  0  0  0  0  0  0  0  0  0
  1  2  1  0
  1 25  1  0
  1 26  1  0
  1 27  1  0
  2  3  1  0
  2 17  1  0
  3  4  2  0
  3  5  1  0
  5  6  2  0
  5 16  1  0
  6  7  1  0
  6 28  1  0
  7  8  2  0
  7 29  1  0
  8  9  1  0
  8 30  1  0
  9 10  1  0
  9 16  2  0
 10 11  1  0
 10 31  1  0
 10 32  1  0
 11 12  1  0
 11 15  1  0
 12 13  2  0
 12 33  1  0
 13 14  1  0
 13 34  1  0
 14 15  2  0
 15 35  1  0
 16 36  1  0
 17 18  2  0
 17 23  1  0
 18 19  1  0
 18 37  1  0
 19 20  1  0
 19 21  2  0
 21 22  1  0
 21 38  1  0
 22 23  2  0
 22 39  1  0
 23 24  1  0
M  END

