
     RDKit          3D

120129  0  0  0  0  0  0  0  0999 V2000
    0.3154   -2.2031   -4.6590 C   0  0  0  0  0  0  0  0  0  0  0  0
    1.6747   -2.6497   -4.1191 C   0  0  0  0  0  0  0  0  0  0  0  0
    2.5771   -1.4851   -3.6964 C   0  0  0  0  0  0  0  0  0  0  0  0
    3.9355   -1.9364   -3.1493 C   0  0  0  0  0  0  0  0  0  0  0  0
    4.9259   -0.7987   -2.8393 C   0  0  1  0  0  0  0  0  0  0  0  0
    4.4252    0.2110   -1.7816 C   0  0  0  0  0  0  0  0  0  0  0  0
    4.0957   -0.3586   -0.3977 C   0  0  0  0  0  0  0  0  0  0  0  0
    6.3183   -1.3434   -2.4468 C   0  0  0  0  0  0  0  0  0  0  0  0
    6.9986   -2.1020   -3.4850 N   0  0  0  0  0  0  0  0  0  0  0  0
    7.6740   -1.5454   -4.5615 C   0  0  0  0  0  0  0  0  0  0  0  0
    7.8501   -0.2018   -4.8938 C   0  0  0  0  0  0  0  0  0  0  0  0
    8.6001    0.0996   -6.0479 C   0  0  0  0  0  0  0  0  0  0  0  0
    8.7998    1.4704   -6.4183 C   0  0  0  0  0  0  0  0  0  0  0  0
    8.9609    2.5820   -6.7179 N   0  0  0  0  0  0  0  0  0  0  0  0
    9.1576   -0.9307   -6.8488 C   0  0  0  0  0  0  0  0  0  0  0  0
    8.9797   -2.2648   -6.5079 C   0  0  0  0  0  0  0  0  0  0  0  0
    8.2378   -2.5917   -5.3575 C   0  0  0  0  0  0  0  0  0  0  0  0
    7.8831   -3.8267   -4.7193 C   0  0  0  0  0  0  0  0  0  0  0  0
    8.1391   -5.1834   -5.0079 C   0  0  0  0  0  0  0  0  0  0  0  0
    7.6495   -6.1639   -4.1657 C   0  0  0  0  0  0  0  0  0  0  0  0
    6.8857   -5.8276   -3.0008 C   0  0  0  0  0  0  0  0  0  0  0  0
    6.3973   -6.8440   -2.1602 C   0  0  0  0  0  0  0  0  0  0  0  0
    5.9657   -7.7338   -1.4227 C   0  0  0  0  0  0  0  0  0  0  0  0
    5.4677   -8.7321   -0.5795 C   0  0  0  0  0  0  0  0  0  0  0  0
    4.7547   -8.3735    0.5994 C   0  0  0  0  0  0  0  0  0  0  0  0
    4.2500   -9.3282    1.4540 C   0  0  0  0  0  0  0  0  0  0  0  0
    4.4162  -10.7218    1.1940 C   0  0  0  0  0  0  0  0  0  0  0  0
    3.9007  -11.7142    2.0624 C   0  0  0  0  0  0  0  0  0  0  0  0
    4.0681  -13.0624    1.7889 C   0  0  0  0  0  0  0  0  0  0  0  0
    4.7598  -13.4940    0.6314 C   0  0  0  0  0  0  0  0  0  0  0  0
    4.9383  -14.8774    0.3282 C   0  0  0  0  0  0  0  0  0  0  0  0
    5.6087  -15.2832   -0.8041 C   0  0  0  0  0  0  0  0  0  0  0  0
    6.1570  -14.3428   -1.7217 C   0  0  0  0  0  0  0  0  0  0  0  0
    6.8250  -14.7941   -2.8644 C   0  0  0  0  0  0  0  0  0  0  0  0
    7.4059  -15.2065   -3.8716 C   0  0  0  0  0  0  0  0  0  0  0  0
    8.0626  -15.6805   -5.0213 C   0  0  0  0  0  0  0  0  0  0  0  0
    8.6560  -14.7567   -5.9423 C   0  0  0  0  0  0  0  0  0  0  0  0
    9.3085  -15.1967   -7.0788 C   0  0  0  0  0  0  0  0  0  0  0  0
    9.3894  -16.5798   -7.3424 C   0  0  0  0  0  0  0  0  0  0  0  0
    9.9859  -17.3608   -8.3872 C   0  0  0  0  0  0  0  0  0  0  0  0
   10.7173  -17.0388   -9.5457 C   0  0  0  0  0  0  0  0  0  0  0  0
   11.1805  -18.0577  -10.3665 C   0  0  0  0  0  0  0  0  0  0  0  0
   10.9220  -19.4151  -10.0436 C   0  0  0  0  0  0  0  0  0  0  0  0
   11.4110  -20.4527  -10.9042 C   0  0  0  0  0  0  0  0  0  0  0  0
   11.8068  -21.2941  -11.6019 N   0  0  0  0  0  0  0  0  0  0  0  0
   10.1905  -19.7627   -8.8912 C   0  0  0  0  0  0  0  0  0  0  0  0
    9.7258  -18.7329   -8.0725 C   0  0  0  0  0  0  0  0  0  0  0  0
    8.9988  -18.7998   -6.8914 N   0  0  0  0  0  0  0  0  0  0  0  0
    8.5391  -20.0023   -6.2115 C   0  0  0  0  0  0  0  0  0  0  0  0
    7.0349  -20.3123   -6.3935 C   0  0  1  0  0  0  0  0  0  0  0  0
    6.6813  -20.7217   -7.8404 C   0  0  0  0  0  0  0  0  0  0  0  0
    7.1377  -22.1162   -8.2817 C   0  0  0  0  0  0  0  0  0  0  0  0
    6.5547  -21.3435   -5.3518 C   0  0  0  0  0  0  0  0  0  0  0  0
    6.4086  -20.8100   -3.9212 C   0  0  0  0  0  0  0  0  0  0  0  0
    5.9008  -21.8595   -2.9264 C   0  0  0  0  0  0  0  0  0  0  0  0
    5.7410  -21.3250   -1.5026 C   0  0  0  0  0  0  0  0  0  0  0  0
    8.7910  -17.5042   -6.4294 C   0  0  0  0  0  0  0  0  0  0  0  0
    8.1375  -17.0767   -5.2783 C   0  0  0  0  0  0  0  0  0  0  0  0
    6.0000  -12.9256   -1.4450 C   0  0  0  0  0  0  0  0  0  0  0  0
    6.5166  -11.9271   -2.3059 C   0  0  0  0  0  0  0  0  0  0  0  0
    6.3513  -10.5806   -2.0316 C   0  0  0  0  0  0  0  0  0  0  0  0
    5.6577  -10.1408   -0.8782 C   0  0  0  0  0  0  0  0  0  0  0  0
    5.1263  -11.1234    0.0135 C   0  0  0  0  0  0  0  0  0  0  0  0
    5.2982  -12.5154   -0.2693 C   0  0  0  0  0  0  0  0  0  0  0  0
    6.6202   -4.4635   -2.7026 C   0  0  0  0  0  0  0  0  0  0  0  0
    7.1175   -3.4870   -3.5586 C   0  0  0  0  0  0  0  0  0  0  0  0
   -0.3052   -3.0638   -4.9548 H   0  0  0  0  0  0  0  0  0  0  0  0
    0.4293   -1.5554   -5.5445 H   0  0  0  0  0  0  0  0  0  0  0  0
   -0.2487   -1.6304   -3.9037 H   0  0  0  0  0  0  0  0  0  0  0  0
    2.1961   -3.2534   -4.8838 H   0  0  0  0  0  0  0  0  0  0  0  0
    1.5260   -3.3248   -3.2566 H   0  0  0  0  0  0  0  0  0  0  0  0
    2.0446   -0.8781   -2.9427 H   0  0  0  0  0  0  0  0  0  0  0  0
    2.7370   -0.8164   -4.5629 H   0  0  0  0  0  0  0  0  0  0  0  0
    4.4013   -2.6109   -3.8876 H   0  0  0  0  0  0  0  0  0  0  0  0
    3.7796   -2.5511   -2.2437 H   0  0  0  0  0  0  0  0  0  0  0  0
    5.0633   -0.2248   -3.7739 H   0  0  0  0  0  0  0  0  0  0  0  0
    3.5330    0.7203   -2.1809 H   0  0  0  0  0  0  0  0  0  0  0  0
    5.1870    1.0038   -1.6726 H   0  0  0  0  0  0  0  0  0  0  0  0
    3.2883   -1.1071   -0.4394 H   0  0  0  0  0  0  0  0  0  0  0  0
    3.7602    0.4433    0.2789 H   0  0  0  0  0  0  0  0  0  0  0  0
    4.9669   -0.8369    0.0790 H   0  0  0  0  0  0  0  0  0  0  0  0
    6.2419   -1.9899   -1.5604 H   0  0  0  0  0  0  0  0  0  0  0  0
    6.9718   -0.5022   -2.1593 H   0  0  0  0  0  0  0  0  0  0  0  0
    7.4278    0.6043   -4.2938 H   0  0  0  0  0  0  0  0  0  0  0  0
    9.7302   -0.6588   -7.7370 H   0  0  0  0  0  0  0  0  0  0  0  0
    9.4161   -3.0514   -7.1275 H   0  0  0  0  0  0  0  0  0  0  0  0
    8.7213   -5.4589   -5.8905 H   0  0  0  0  0  0  0  0  0  0  0  0
    7.8403   -7.2174   -4.3769 H   0  0  0  0  0  0  0  0  0  0  0  0
    4.6149   -7.3129    0.8174 H   0  0  0  0  0  0  0  0  0  0  0  0
    3.7082   -9.0237    2.3531 H   0  0  0  0  0  0  0  0  0  0  0  0
    3.3620  -11.4002    2.9602 H   0  0  0  0  0  0  0  0  0  0  0  0
    3.6620  -13.8141    2.4708 H   0  0  0  0  0  0  0  0  0  0  0  0
    4.5284  -15.6218    1.0157 H   0  0  0  0  0  0  0  0  0  0  0  0
    5.7315  -16.3469   -1.0174 H   0  0  0  0  0  0  0  0  0  0  0  0
    8.5853  -13.6893   -5.7267 H   0  0  0  0  0  0  0  0  0  0  0  0
    9.7594  -14.4765   -7.7658 H   0  0  0  0  0  0  0  0  0  0  0  0
   10.9222  -15.9959   -9.7979 H   0  0  0  0  0  0  0  0  0  0  0  0
   11.7495  -17.8268  -11.2685 H   0  0  0  0  0  0  0  0  0  0  0  0
   10.0017  -20.8120   -8.6672 H   0  0  0  0  0  0  0  0  0  0  0  0
    8.7699  -19.8859   -5.1408 H   0  0  0  0  0  0  0  0  0  0  0  0
    9.1502  -20.8468   -6.5629 H   0  0  0  0  0  0  0  0  0  0  0  0
    6.4941  -19.3699   -6.1954 H   0  0  0  0  0  0  0  0  0  0  0  0
    7.0886  -19.9648   -8.5322 H   0  0  0  0  0  0  0  0  0  0  0  0
    5.5845  -20.6594   -7.9503 H   0  0  0  0  0  0  0  0  0  0  0  0
    8.2260  -22.2602   -8.1794 H   0  0  0  0  0  0  0  0  0  0  0  0
    6.8920  -22.2853   -9.3417 H   0  0  0  0  0  0  0  0  0  0  0  0
    6.6479  -22.9136   -7.7013 H   0  0  0  0  0  0  0  0  0  0  0  0
    7.2334  -22.2163   -5.3473 H   0  0  0  0  0  0  0  0  0  0  0  0
    5.5744  -21.7344   -5.6772 H   0  0  0  0  0  0  0  0  0  0  0  0
    5.7151  -19.9485   -3.9250 H   0  0  0  0  0  0  0  0  0  0  0  0
    7.3748  -20.4163   -3.5562 H   0  0  0  0  0  0  0  0  0  0  0  0
    6.5941  -22.7202   -2.9224 H   0  0  0  0  0  0  0  0  0  0  0  0
    4.9333  -22.2571   -3.2831 H   0  0  0  0  0  0  0  0  0  0  0  0
    6.6998  -20.9536   -1.1031 H   0  0  0  0  0  0  0  0  0  0  0  0
    5.3757  -22.1054   -0.8164 H   0  0  0  0  0  0  0  0  0  0  0  0
    5.0229  -20.4884   -1.4667 H   0  0  0  0  0  0  0  0  0  0  0  0
    7.6823  -17.7757   -4.5772 H   0  0  0  0  0  0  0  0  0  0  0  0
    7.0542  -12.2360   -3.2040 H   0  0  0  0  0  0  0  0  0  0  0  0
    6.7595   -9.8337   -2.7147 H   0  0  0  0  0  0  0  0  0  0  0  0
    6.0289   -4.2144   -1.8217 H   0  0  0  0  0  0  0  0  0  0  0  0
  1  2  1  0
  1 67  1  0
  1 68  1  0
  1 69  1  0
  2  3  1  0
  2 70  1  0
  2 71  1  0
  3  4  1  0
  3 72  1  0
  3 73  1  0
  4  5  1  0
  4 74  1  0
  4 75  1  0
  5  6  1  0
  5  8  1  0
  5 76  1  6
  6  7  1  0
  6 77  1  0
  6 78  1  0
  7 79  1  0
  7 80  1  0
  7 81  1  0
  8  9  1  0
  8 82  1  0
  8 83  1  0
  9 10  1  0
  9 66  1  0
 10 11  2  0
 10 17  1  0
 11 12  1  0
 11 84  1  0
 12 13  1  0
 12 15  2  0
 13 14  3  0
 15 16  1  0
 15 85  1  0
 16 17  2  0
 16 86  1  0
 17 18  1  0
 18 19  1  0
 18 66  2  0
 19 20  2  0
 19 87  1  0
 20 21  1  0
 20 88  1  0
 21 22  1  0
 21 65  2  0
 22 23  3  0
 23 24  1  0
 24 25  2  0
 24 62  1  0
 25 26  1  0
 25 89  1  0
 26 27  2  0
 26 90  1  0
 27 28  1  0
 27 63  1  0
 28 29  2  0
 28 91  1  0
 29 30  1  0
 29 92  1  0
 30 31  2  0
 30 64  1  0
 31 32  1  0
 31 93  1  0
 32 33  2  0
 32 94  1  0
 33 34  1  0
 33 59  1  0
 34 35  3  0
 35 36  1  0
 36 37  2  0
 36 58  1  0
 37 38  1  0
 37 95  1  0
 38 39  2  0
 38 96  1  0
 39 40  1  0
 39 57  1  0
 40 41  2  0
 40 47  1  0
 41 42  1  0
 41 97  1  0
 42 43  2  0
 42 98  1  0
 43 44  1  0
 43 46  1  0
 44 45  3  0
 46 47  2  0
 46 99  1  0
 47 48  1  0
 48 49  1  0
 48 57  1  0
 49 50  1  0
 49100  1  0
 49101  1  0
 50 51  1  0
 50 53  1  0
 50102  1  1
 51 52  1  0
 51103  1  0
 51104  1  0
 52105  1  0
 52106  1  0
 52107  1  0
 53 54  1  0
 53108  1  0
 53109  1  0
 54 55  1  0
 54110  1  0
 54111  1  0
 55 56  1  0
 55112  1  0
 55113  1  0
 56114  1  0
 56115  1  0
 56116  1  0
 57 58  2  0
 58117  1  0
 59 60  2  0
 59 64  1  0
 60 61  1  0
 60118  1  0
 61 62  2  0
 61119  1  0
 62 63  1  0
 63 64  2  0
 65 66  1  0
 65120  1  0
M  END

