
     RDKit          3D

 61 64  0  0  0  0  0  0  0  0999 V2000
    8.3575    9.3828   -6.8659 C   0  0  0  0  0  0  0  0  0  0  0  0
    7.6088    8.1887   -6.8067 O   0  0  0  0  0  0  0  0  0  0  0  0
    7.1743    7.7306   -5.6105 C   0  0  0  0  0  0  0  0  0  0  0  0
    7.4185    8.3656   -4.3811 C   0  0  0  0  0  0  0  0  0  0  0  0
    6.9308    7.8004   -3.1989 C   0  0  0  0  0  0  0  0  0  0  0  0
    6.1838    6.6198   -3.2288 C   0  0  0  0  0  0  0  0  0  0  0  0
    5.6922    6.0519   -2.0081 N   0  0  0  0  0  0  0  0  0  0  0  0
    4.7355    6.6219   -1.1717 C   0  0  0  0  0  0  0  0  0  0  0  0
    4.0367    7.8948   -1.5301 C   0  0  0  0  0  0  0  0  0  0  0  0
    4.5687    5.7996   -0.0677 C   0  0  0  0  0  0  0  0  0  0  0  0
    3.6505    5.9903    1.1016 C   0  0  0  0  0  0  0  0  0  0  0  0
    5.4545    4.6841   -0.2492 C   0  0  0  0  0  0  0  0  0  0  0  0
    5.6449    3.5791    0.6238 C   0  0  0  0  0  0  0  0  0  0  0  0
    5.8161    2.6789    1.3397 N   0  0  0  0  0  0  0  0  0  0  0  0
    6.1243    4.8685   -1.4539 C   0  0  0  0  0  0  0  0  0  0  0  0
    7.0921    4.0459   -2.0535 N   0  0  0  0  0  0  0  0  0  0  0  0
    6.7720    3.0577   -2.9540 C   0  0  0  0  0  0  0  0  0  0  0  0
    5.6574    2.8650   -3.3828 O   0  0  0  0  0  0  0  0  0  0  0  0
    7.9913    2.2323   -3.4026 C   0  0  0  0  0  0  0  0  0  0  0  0
    7.5004    0.8018   -4.4355 S   0  0  0  0  0  0  0  0  0  0  0  0
    7.1679    1.6340   -5.8846 C   0  0  0  0  0  0  0  0  0  0  0  0
    7.3458    2.9622   -6.1211 N   0  0  0  0  0  0  0  0  0  0  0  0
    6.9579    3.1876   -7.3562 N   0  0  0  0  0  0  0  0  0  0  0  0
    6.5503    1.9944   -7.8945 C   0  0  0  0  0  0  0  0  0  0  0  0
    6.0515    1.8230   -9.2740 C   0  0  0  0  0  0  0  0  0  0  0  0
    6.6830    1.0061   -6.9900 N   0  0  0  0  0  0  0  0  0  0  0  0
    6.4222   -0.4452   -7.1035 C   0  0  0  0  0  0  0  0  0  0  0  0
    7.3901   -1.1726   -7.9036 C   0  0  0  0  0  0  0  0  0  0  0  0
    7.0258   -2.3330   -8.5537 C   0  0  0  0  0  0  0  0  0  0  0  0
    5.6871   -2.8002   -8.5240 C   0  0  0  0  0  0  0  0  0  0  0  0
    4.7141   -2.0226   -7.8339 C   0  0  0  0  0  0  0  0  0  0  0  0
    5.0227   -0.8518   -7.1681 C   0  0  0  0  0  0  0  0  0  0  0  0
    3.9656   -0.0665   -6.4314 C   0  0  0  0  0  0  0  0  0  0  0  0
    5.9343    5.9905   -4.4587 C   0  0  0  0  0  0  0  0  0  0  0  0
    6.4357    6.5330   -5.6357 C   0  0  0  0  0  0  0  0  0  0  0  0
    8.5910    9.5525   -7.9253 H   0  0  0  0  0  0  0  0  0  0  0  0
    9.3033    9.3036   -6.3000 H   0  0  0  0  0  0  0  0  0  0  0  0
    7.7845   10.2466   -6.4833 H   0  0  0  0  0  0  0  0  0  0  0  0
    7.9950    9.2890   -4.3284 H   0  0  0  0  0  0  0  0  0  0  0  0
    7.1428    8.2829   -2.2421 H   0  0  0  0  0  0  0  0  0  0  0  0
    3.6599    7.8701   -2.5651 H   0  0  0  0  0  0  0  0  0  0  0  0
    4.6897    8.7793   -1.4439 H   0  0  0  0  0  0  0  0  0  0  0  0
    3.1793    8.0519   -0.8624 H   0  0  0  0  0  0  0  0  0  0  0  0
    2.9764    6.8462    0.9563 H   0  0  0  0  0  0  0  0  0  0  0  0
    4.2139    6.1666    2.0336 H   0  0  0  0  0  0  0  0  0  0  0  0
    3.0277    5.0970    1.2705 H   0  0  0  0  0  0  0  0  0  0  0  0
    8.0523    4.1143   -1.7275 H   0  0  0  0  0  0  0  0  0  0  0  0
    8.5217    1.7972   -2.5422 H   0  0  0  0  0  0  0  0  0  0  0  0
    8.6815    2.8687   -3.9747 H   0  0  0  0  0  0  0  0  0  0  0  0
    6.0480    2.7910   -9.7894 H   0  0  0  0  0  0  0  0  0  0  0  0
    5.0385    1.3923   -9.2587 H   0  0  0  0  0  0  0  0  0  0  0  0
    6.6830    1.1004   -9.8132 H   0  0  0  0  0  0  0  0  0  0  0  0
    8.4301   -0.8326   -7.9301 H   0  0  0  0  0  0  0  0  0  0  0  0
    7.7888   -2.9056   -9.0905 H   0  0  0  0  0  0  0  0  0  0  0  0
    5.3993   -3.7136   -9.0450 H   0  0  0  0  0  0  0  0  0  0  0  0
    3.6765   -2.3728   -7.8103 H   0  0  0  0  0  0  0  0  0  0  0  0
    2.9785   -0.5405   -6.5391 H   0  0  0  0  0  0  0  0  0  0  0  0
    3.8620    0.9729   -6.7963 H   0  0  0  0  0  0  0  0  0  0  0  0
    4.1832    0.0102   -5.3505 H   0  0  0  0  0  0  0  0  0  0  0  0
    5.3588    5.0640   -4.4813 H   0  0  0  0  0  0  0  0  0  0  0  0
    6.2788    6.0340   -6.5937 H   0  0  0  0  0  0  0  0  0  0  0  0
  1  2  1  0
  1 36  1  0
  1 37  1  0
  1 38  1  0
  2  3  1  0
  3  4  2  0
  3 35  1  0
  4  5  1  0
  4 39  1  0
  5  6  2  0
  5 40  1  0
  6  7  1  0
  6 34  1  0
  7  8  1  0
  7 15  1  0
  8  9  1  0
  8 10  2  0
  9 41  1  0
  9 42  1  0
  9 43  1  0
 10 11  1  0
 10 12  1  0
 11 44  1  0
 11 45  1  0
 11 46  1  0
 12 13  1  0
 12 15  2  0
 13 14  3  0
 15 16  1  0
 16 17  1  0
 16 47  1  0
 17 18  2  0
 17 19  1  0
 19 20  1  0
 19 48  1  0
 19 49  1  0
 20 21  1  0
 21 22  2  0
 21 26  1  0
 22 23  1  0
 23 24  2  0
 24 25  1  0
 24 26  1  0
 25 50  1  0
 25 51  1  0
 25 52  1  0
 26 27  1  0
 27 28  2  0
 27 32  1  0
 28 29  1  0
 28 53  1  0
 29 30  2  0
 29 54  1  0
 30 31  1  0
 30 55  1  0
 31 32  2  0
 31 56  1  0
 32 33  1  0
 33 57  1  0
 33 58  1  0
 33 59  1  0
 34 35  2  0
 34 60  1  0
 35 61  1  0
M  END

