
     RDKit          3D

 47 47  0  0  0  0  0  0  0  0999 V2000
    6.7832   -1.4787    1.0102 C   0  0  0  0  0  0  0  0  0  0  0  0
    5.5639   -0.6307    0.6375 C   0  0  0  0  0  0  0  0  0  0  0  0
    5.8217    0.4315   -0.4525 C   0  0  1  0  0  0  0  0  0  0  0  0
    6.3764   -0.1980   -1.7380 C   0  0  0  0  0  0  0  0  0  0  0  0
    4.5336    1.2458   -0.7547 C   0  0  1  0  0  0  0  0  0  0  0  0
    3.8145    1.8038    0.4848 C   0  0  0  0  0  0  0  0  0  0  0  0
    4.7865    2.3367   -1.7271 N   0  0  0  0  0  0  0  0  0  0  0  0
    4.0879    2.3005   -2.9299 C   0  0  0  0  0  0  0  0  0  0  0  0
    3.5792    1.2695   -3.3372 O   0  0  0  0  0  0  0  0  0  0  0  0
    3.8288    3.6119   -3.6878 C   0  0  2  0  0  0  0  0  0  0  0  0
    4.0276    3.4306   -5.2143 C   0  0  1  0  0  0  0  0  0  0  0  0
    3.4512    4.6213   -5.9899 C   0  0  0  0  0  0  0  0  0  0  0  0
    5.4839    3.1574   -5.6035 C   0  0  0  0  0  0  0  0  0  0  0  0
    4.5565    4.7568   -3.1629 N   0  0  0  0  0  0  0  0  0  0  0  0
    4.7150    4.7547   -1.7447 C   0  0  0  0  0  0  0  0  0  0  0  0
    5.0740    5.8530   -1.1614 O   0  0  0  0  0  0  0  0  0  0  0  0
    5.5534    3.5024   -1.3293 C   0  0  2  0  0  0  0  0  0  0  0  0
    6.9873    3.5275   -1.9180 C   0  0  0  0  0  0  0  0  0  0  0  0
    7.8710    4.6274   -1.3315 C   0  0  0  0  0  0  0  0  0  0  0  0
    6.5500   -2.1399    1.8597 H   0  0  0  0  0  0  0  0  0  0  0  0
    7.6360   -0.8456    1.3089 H   0  0  0  0  0  0  0  0  0  0  0  0
    7.1191   -2.1195    0.1807 H   0  0  0  0  0  0  0  0  0  0  0  0
    5.2020   -0.1333    1.5510 H   0  0  0  0  0  0  0  0  0  0  0  0
    4.7429   -1.2930    0.3045 H   0  0  0  0  0  0  0  0  0  0  0  0
    6.5772    1.1327   -0.0483 H   0  0  0  0  0  0  0  0  0  0  0  0
    5.6905   -0.9703   -2.1233 H   0  0  0  0  0  0  0  0  0  0  0  0
    7.3563   -0.6672   -1.5669 H   0  0  0  0  0  0  0  0  0  0  0  0
    6.5045    0.5486   -2.5345 H   0  0  0  0  0  0  0  0  0  0  0  0
    3.8389    0.5774   -1.2816 H   0  0  0  0  0  0  0  0  0  0  0  0
    4.4983    2.3188    1.1780 H   0  0  0  0  0  0  0  0  0  0  0  0
    3.3263    0.9917    1.0409 H   0  0  0  0  0  0  0  0  0  0  0  0
    3.0370    2.5199    0.1802 H   0  0  0  0  0  0  0  0  0  0  0  0
    2.7366    3.7348   -3.5190 H   0  0  0  0  0  0  0  0  0  0  0  0
    3.4316    2.5374   -5.4623 H   0  0  0  0  0  0  0  0  0  0  0  0
    4.0277    5.5443   -5.8081 H   0  0  0  0  0  0  0  0  0  0  0  0
    2.4000    4.8144   -5.7192 H   0  0  0  0  0  0  0  0  0  0  0  0
    3.4854    4.4302   -7.0740 H   0  0  0  0  0  0  0  0  0  0  0  0
    6.1301    4.0133   -5.3547 H   0  0  0  0  0  0  0  0  0  0  0  0
    5.5639    2.9752   -6.6872 H   0  0  0  0  0  0  0  0  0  0  0  0
    5.8803    2.2663   -5.0916 H   0  0  0  0  0  0  0  0  0  0  0  0
    4.1578    5.6388   -3.4764 H   0  0  0  0  0  0  0  0  0  0  0  0
    5.6261    3.5059   -0.2331 H   0  0  0  0  0  0  0  0  0  0  0  0
    6.9148    3.6373   -3.0108 H   0  0  0  0  0  0  0  0  0  0  0  0
    7.4488    2.5445   -1.7279 H   0  0  0  0  0  0  0  0  0  0  0  0
    7.4466    5.6239   -1.5121 H   0  0  0  0  0  0  0  0  0  0  0  0
    8.8777    4.5857   -1.7775 H   0  0  0  0  0  0  0  0  0  0  0  0
    7.9865    4.5108   -0.2406 H   0  0  0  0  0  0  0  0  0  0  0  0
  1  2  1  0
  1 20  1  0
  1 21  1  0
  1 22  1  0
  2  3  1  0
  2 23  1  0
  2 24  1  0
  3  4  1  0
  3  5  1  0
  3 25  1  1
  4 26  1  0
  4 27  1  0
  4 28  1  0
  5  6  1  0
  5  7  1  0
  5 29  1  6
  6 30  1  0
  6 31  1  0
  6 32  1  0
  7  8  1  0
  7 17  1  0
  8  9  2  0
  8 10  1  0
 10 11  1  0
 10 14  1  0
 10 33  1  6
 11 12  1  0
 11 13  1  0
 11 34  1  6
 12 35  1  0
 12 36  1  0
 12 37  1  0
 13 38  1  0
 13 39  1  0
 13 40  1  0
 14 15  1  0
 14 41  1  0
 15 16  2  0
 15 17  1  0
 17 18  1  0
 17 42  1  1
 18 19  1  0
 18 43  1  0
 18 44  1  0
 19 45  1  0
 19 46  1  0
 19 47  1  0
M  END

