
     RDKit          3D

 58 59  0  0  0  0  0  0  0  0999 V2000
    1.6564    1.2705   -5.2445 C   0  0  0  0  0  0  0  0  0  0  0  0
    3.1311    0.8874   -5.2741 C   0  0  1  0  0  0  0  0  0  0  0  0
    3.8152    1.1736   -6.5990 C   0  0  0  0  0  0  0  0  0  0  0  0
    3.8425    1.6570   -4.2545 O   0  0  0  0  0  0  0  0  0  0  0  0
    3.8260    1.1962   -2.9976 C   0  0  0  0  0  0  0  0  0  0  0  0
    3.2810    0.1778   -2.6438 O   0  0  0  0  0  0  0  0  0  0  0  0
    4.5810    2.1109   -2.0501 C   0  0  0  0  0  0  0  0  0  0  0  0
    6.0858    2.2724   -2.3922 C   0  0  1  0  0  0  0  0  0  0  0  0
    6.7626    2.9893   -1.2111 C   0  0  0  0  0  0  0  0  0  0  0  0
    6.6573    4.1938   -1.0645 O   0  0  0  0  0  0  0  0  0  0  0  0
    7.4077    2.1792   -0.3222 N   0  0  0  0  0  0  0  0  0  0  0  0
    7.7182    0.7606   -0.4874 C   0  0  0  0  0  0  0  0  0  0  0  0
    6.8264    0.1144   -1.5473 C   0  0  0  0  0  0  0  0  0  0  0  0
    6.7492    1.0033   -2.7017 N   0  0  0  0  0  0  0  0  0  0  0  0
    7.3984    0.7078   -3.8827 C   0  0  0  0  0  0  0  0  0  0  0  0
    7.9291   -0.8091   -4.2934 S   0  0  0  0  0  0  0  0  0  0  0  0
    7.6339    1.8284   -4.6899 N   0  0  0  0  0  0  0  0  0  0  0  0
    7.7088    1.8832   -6.0879 C   0  0  0  0  0  0  0  0  0  0  0  0
    7.2583    1.0236   -6.8123 O   0  0  0  0  0  0  0  0  0  0  0  0
    8.3449    3.1321   -6.6282 C   0  0  0  0  0  0  0  0  0  0  0  0
    9.2130    3.9561   -5.8992 C   0  0  0  0  0  0  0  0  0  0  0  0
    9.7804    5.0932   -6.4822 C   0  0  0  0  0  0  0  0  0  0  0  0
    9.5040    5.4506   -7.8114 C   0  0  0  0  0  0  0  0  0  0  0  0
   10.0998    6.7007   -8.4842 C   0  0  1  0  0  0  0  0  0  0  0  0
   11.0329    7.4819   -7.5413 C   0  0  0  0  0  0  0  0  0  0  0  0
   10.9138    6.2759   -9.7287 C   0  0  0  0  0  0  0  0  0  0  0  0
    8.9498    7.6407   -8.9165 C   0  0  0  0  0  0  0  0  0  0  0  0
    8.6404    4.6044   -8.5371 C   0  0  0  0  0  0  0  0  0  0  0  0
    8.0782    3.4684   -7.9657 C   0  0  0  0  0  0  0  0  0  0  0  0
    1.1063    0.7060   -6.0137 H   0  0  0  0  0  0  0  0  0  0  0  0
    1.5290    2.3457   -5.4497 H   0  0  0  0  0  0  0  0  0  0  0  0
    1.2080    1.0365   -4.2679 H   0  0  0  0  0  0  0  0  0  0  0  0
    3.2394   -0.1740   -5.0052 H   0  0  0  0  0  0  0  0  0  0  0  0
    3.7685    2.2484   -6.8386 H   0  0  0  0  0  0  0  0  0  0  0  0
    3.3045    0.6222   -7.4040 H   0  0  0  0  0  0  0  0  0  0  0  0
    4.8691    0.8599   -6.5851 H   0  0  0  0  0  0  0  0  0  0  0  0
    4.4407    1.7103   -1.0381 H   0  0  0  0  0  0  0  0  0  0  0  0
    4.1371    3.1179   -2.0752 H   0  0  0  0  0  0  0  0  0  0  0  0
    6.1462    2.9415   -3.2550 H   0  0  0  0  0  0  0  0  0  0  0  0
    7.8526    2.6806    0.4421 H   0  0  0  0  0  0  0  0  0  0  0  0
    7.5819    0.2425    0.4764 H   0  0  0  0  0  0  0  0  0  0  0  0
    8.7776    0.6363   -0.7797 H   0  0  0  0  0  0  0  0  0  0  0  0
    5.8127   -0.0782   -1.1638 H   0  0  0  0  0  0  0  0  0  0  0  0
    7.2455   -0.8437   -1.8777 H   0  0  0  0  0  0  0  0  0  0  0  0
    7.8090    2.7056   -4.2135 H   0  0  0  0  0  0  0  0  0  0  0  0
    9.4908    3.7076   -4.8712 H   0  0  0  0  0  0  0  0  0  0  0  0
   10.4559    5.6982   -5.8777 H   0  0  0  0  0  0  0  0  0  0  0  0
   11.8930    6.8755   -7.2165 H   0  0  0  0  0  0  0  0  0  0  0  0
   10.5058    7.8394   -6.6429 H   0  0  0  0  0  0  0  0  0  0  0  0
   11.4317    8.3663   -8.0623 H   0  0  0  0  0  0  0  0  0  0  0  0
   11.7416    5.6046   -9.4506 H   0  0  0  0  0  0  0  0  0  0  0  0
   11.3445    7.1617  -10.2234 H   0  0  0  0  0  0  0  0  0  0  0  0
   10.2919    5.7515  -10.4699 H   0  0  0  0  0  0  0  0  0  0  0  0
    8.3534    7.9620   -8.0479 H   0  0  0  0  0  0  0  0  0  0  0  0
    8.2679    7.1548   -9.6306 H   0  0  0  0  0  0  0  0  0  0  0  0
    9.3553    8.5428   -9.4032 H   0  0  0  0  0  0  0  0  0  0  0  0
    8.4009    4.8362   -9.5772 H   0  0  0  0  0  0  0  0  0  0  0  0
    7.4214    2.8154   -8.5434 H   0  0  0  0  0  0  0  0  0  0  0  0
  1  2  1  0
  1 30  1  0
  1 31  1  0
  1 32  1  0
  2  3  1  0
  2  4  1  0
  2 33  1  1
  3 34  1  0
  3 35  1  0
  3 36  1  0
  4  5  1  0
  5  6  2  0
  5  7  1  0
  7  8  1  0
  7 37  1  0
  7 38  1  0
  8  9  1  0
  8 14  1  0
  8 39  1  6
  9 10  2  0
  9 11  1  0
 11 12  1  0
 11 40  1  0
 12 13  1  0
 12 41  1  0
 12 42  1  0
 13 14  1  0
 13 43  1  0
 13 44  1  0
 14 15  1  0
 15 16  2  0
 15 17  1  0
 17 18  1  0
 17 45  1  0
 18 19  2  0
 18 20  1  0
 20 21  2  0
 20 29  1  0
 21 22  1  0
 21 46  1  0
 22 23  2  0
 22 47  1  0
 23 24  1  0
 23 28  1  0
 24 25  1  1
 24 26  1  0
 24 27  1  0
 25 48  1  0
 25 49  1  0
 25 50  1  0
 26 51  1  0
 26 52  1  0
 26 53  1  0
 27 54  1  0
 27 55  1  0
 27 56  1  0
 28 29  2  0
 28 57  1  0
 29 58  1  0
M  END

