
     RDKit          3D

162178  0  0  0  0  0  0  0  0999 V2000
    8.6211   14.5212   -1.0324 N   0  0  0  0  0  0  0  0  0  0  0  0
    9.2130   13.5265   -1.1313 C   0  0  0  0  0  0  0  0  0  0  0  0
    9.9441   12.2980   -1.2545 C   0  0  0  0  0  0  0  0  0  0  0  0
   11.1140   12.2417   -2.0374 C   0  0  0  0  0  0  0  0  0  0  0  0
   11.8251   11.0528   -2.1404 C   0  0  0  0  0  0  0  0  0  0  0  0
   11.3845    9.8781   -1.4947 C   0  0  0  0  0  0  0  0  0  0  0  0
   12.1584    8.6244   -1.6193 C   0  0  0  0  0  0  0  0  0  0  0  0
   13.5853    8.6760   -1.4274 C   0  0  0  0  0  0  0  0  0  0  0  0
   14.4181    7.8515   -2.1180 N   0  0  0  0  0  0  0  0  0  0  0  0
   15.6800    8.3091   -1.8944 C   0  0  0  0  0  0  0  0  0  0  0  0
   15.6807    9.4009   -0.9249 C   0  0  0  0  0  0  0  0  0  0  0  0
   16.8667    9.9372   -0.2180 C   0  0  0  0  0  0  0  0  0  0  0  0
   17.7352    9.0520    0.4516 C   0  0  0  0  0  0  0  0  0  0  0  0
   18.8390    9.5239    1.1637 C   0  0  0  0  0  0  0  0  0  0  0  0
   19.1057   10.8954    1.2199 C   0  0  0  0  0  0  0  0  0  0  0  0
   18.2601   11.7870    0.5547 C   0  0  0  0  0  0  0  0  0  0  0  0
   17.1546   11.3129   -0.1557 C   0  0  0  0  0  0  0  0  0  0  0  0
   14.3386    9.6371   -0.6277 C   0  0  0  0  0  0  0  0  0  0  0  0
   13.7928   10.4649    0.4767 C   0  0  0  0  0  0  0  0  0  0  0  0
   13.8937   11.8672    0.5021 C   0  0  0  0  0  0  0  0  0  0  0  0
   13.3956   12.6064    1.5780 C   0  0  0  0  0  0  0  0  0  0  0  0
   12.7860   11.9588    2.6557 C   0  0  0  0  0  0  0  0  0  0  0  0
   12.6720   10.5653    2.6451 C   0  0  0  0  0  0  0  0  0  0  0  0
   13.1667    9.8292    1.5668 C   0  0  0  0  0  0  0  0  0  0  0  0
   16.7906    7.8133   -2.6666 C   0  0  0  0  0  0  0  0  0  0  0  0
   17.9123    8.7170   -2.9855 C   0  0  0  0  0  0  0  0  0  0  0  0
   17.6728   10.0471   -3.3940 C   0  0  0  0  0  0  0  0  0  0  0  0
   18.7197   10.9069   -3.7000 C   0  0  0  0  0  0  0  0  0  0  0  0
   20.0532   10.4662   -3.5846 C   0  0  0  0  0  0  0  0  0  0  0  0
   21.1390   11.3528   -3.8891 C   0  0  0  0  0  0  0  0  0  0  0  0
   22.0184   12.0704   -4.1373 N   0  0  0  0  0  0  0  0  0  0  0  0
   20.3085    9.1468   -3.1647 C   0  0  0  0  0  0  0  0  0  0  0  0
   19.2530    8.2894   -2.8793 C   0  0  0  0  0  0  0  0  0  0  0  0
   16.8184    6.4707   -3.1252 C   0  0  0  0  0  0  0  0  0  0  0  0
   16.1459    5.4576   -2.4887 N   0  0  0  0  0  0  0  0  0  0  0  0
   15.5147    5.5988   -1.7102 H   0  0  0  0  0  0  0  0  0  0  0  0
   16.4511    4.2291   -3.0175 C   0  0  0  0  0  0  0  0  0  0  0  0
   17.3030    4.4778   -4.1598 C   0  0  0  0  0  0  0  0  0  0  0  0
   17.6123    3.4873   -5.2219 C   0  0  0  0  0  0  0  0  0  0  0  0
   18.9264    3.1688   -5.6033 C   0  0  0  0  0  0  0  0  0  0  0  0
   19.1724    2.2633   -6.6382 C   0  0  0  0  0  0  0  0  0  0  0  0
   18.1081    1.6604   -7.3135 C   0  0  0  0  0  0  0  0  0  0  0  0
   16.7949    1.9662   -6.9434 C   0  0  0  0  0  0  0  0  0  0  0  0
   16.5496    2.8687   -5.9069 C   0  0  0  0  0  0  0  0  0  0  0  0
   17.5292    5.8580   -4.2262 C   0  0  0  0  0  0  0  0  0  0  0  0
   18.1198    6.5934   -5.3738 C   0  0  0  0  0  0  0  0  0  0  0  0
   17.2889    7.4240   -6.1489 C   0  0  0  0  0  0  0  0  0  0  0  0
   17.7909    8.0985   -7.2636 C   0  0  0  0  0  0  0  0  0  0  0  0
   19.1348    7.9596   -7.6232 C   0  0  0  0  0  0  0  0  0  0  0  0
   19.9721    7.1431   -6.8586 C   0  0  0  0  0  0  0  0  0  0  0  0
   19.4686    6.4661   -5.7450 C   0  0  0  0  0  0  0  0  0  0  0  0
   16.0039    3.0119   -2.4385 C   0  0  0  0  0  0  0  0  0  0  0  0
   16.7877    1.7793   -2.6435 C   0  0  0  0  0  0  0  0  0  0  0  0
   18.1963    1.7835   -2.5538 C   0  0  0  0  0  0  0  0  0  0  0  0
   18.9345    0.6204   -2.7351 C   0  0  0  0  0  0  0  0  0  0  0  0
   18.2813   -0.5919   -3.0288 C   0  0  0  0  0  0  0  0  0  0  0  0
   19.0388   -1.7942   -3.2251 C   0  0  0  0  0  0  0  0  0  0  0  0
   19.6524   -2.7676   -3.3856 N   0  0  0  0  0  0  0  0  0  0  0  0
   16.8757   -0.6115   -3.1269 C   0  0  0  0  0  0  0  0  0  0  0  0
   16.1466    0.5533   -2.9258 C   0  0  0  0  0  0  0  0  0  0  0  0
   14.7938    2.9660   -1.6592 C   0  0  0  0  0  0  0  0  0  0  0  0
   13.7470    3.7837   -1.9573 N   0  0  0  0  0  0  0  0  0  0  0  0
   12.6897    3.3292   -1.2332 C   0  0  0  0  0  0  0  0  0  0  0  0
   11.3565    3.8251   -1.4662 C   0  0  0  0  0  0  0  0  0  0  0  0
   10.2206    2.8950   -1.2862 C   0  0  0  0  0  0  0  0  0  0  0  0
    9.0900    3.2466   -0.5220 C   0  0  0  0  0  0  0  0  0  0  0  0
    8.0402    2.3538   -0.3379 C   0  0  0  0  0  0  0  0  0  0  0  0
    8.0828    1.0802   -0.9363 C   0  0  0  0  0  0  0  0  0  0  0  0
    6.9975    0.1589   -0.7578 C   0  0  0  0  0  0  0  0  0  0  0  0
    6.1189   -0.5876   -0.6143 N   0  0  0  0  0  0  0  0  0  0  0  0
    9.2032    0.7183   -1.7100 C   0  0  0  0  0  0  0  0  0  0  0  0
   10.2576    1.6093   -1.8661 C   0  0  0  0  0  0  0  0  0  0  0  0
   11.1204    5.1661   -1.8534 C   0  0  0  0  0  0  0  0  0  0  0  0
   12.0199    6.1780   -1.6207 N   0  0  0  0  0  0  0  0  0  0  0  0
   12.9740    6.0285   -1.3139 H   0  0  0  0  0  0  0  0  0  0  0  0
   11.4937    7.4102   -1.9216 C   0  0  0  0  0  0  0  0  0  0  0  0
   10.1879    7.1648   -2.5013 C   0  0  0  0  0  0  0  0  0  0  0  0
    9.3811    8.1560   -3.2587 C   0  0  0  0  0  0  0  0  0  0  0  0
    9.9363    8.7559   -4.4043 C   0  0  0  0  0  0  0  0  0  0  0  0
    9.1930    9.6526   -5.1744 C   0  0  0  0  0  0  0  0  0  0  0  0
    7.8805    9.9705   -4.8126 C   0  0  0  0  0  0  0  0  0  0  0  0
    7.3191    9.3867   -3.6739 C   0  0  0  0  0  0  0  0  0  0  0  0
    8.0625    8.4876   -2.9056 C   0  0  0  0  0  0  0  0  0  0  0  0
    9.9592    5.7862   -2.4610 C   0  0  0  0  0  0  0  0  0  0  0  0
    8.8712    5.0659   -3.1710 C   0  0  0  0  0  0  0  0  0  0  0  0
    9.1988    4.2425   -4.2643 C   0  0  0  0  0  0  0  0  0  0  0  0
    8.2026    3.5901   -4.9932 C   0  0  0  0  0  0  0  0  0  0  0  0
    6.8583    3.7455   -4.6421 C   0  0  0  0  0  0  0  0  0  0  0  0
    6.5194    4.5555   -3.5551 C   0  0  0  0  0  0  0  0  0  0  0  0
    7.5166    5.2097   -2.8277 C   0  0  0  0  0  0  0  0  0  0  0  0
   13.0874    2.2458   -0.3408 C   0  0  0  0  0  0  0  0  0  0  0  0
   12.2933    1.7283    0.8025 C   0  0  0  0  0  0  0  0  0  0  0  0
   11.9455    2.6052    1.8483 C   0  0  0  0  0  0  0  0  0  0  0  0
   11.2271    2.1560    2.9582 C   0  0  0  0  0  0  0  0  0  0  0  0
   10.8335    0.8172    3.0451 C   0  0  0  0  0  0  0  0  0  0  0  0
   11.1627   -0.0644    2.0121 C   0  0  0  0  0  0  0  0  0  0  0  0
   11.8851    0.3870    0.9044 C   0  0  0  0  0  0  0  0  0  0  0  0
   14.4372    2.0169   -0.6073 C   0  0  0  0  0  0  0  0  0  0  0  0
   15.3823    1.1886    0.1750 C   0  0  0  0  0  0  0  0  0  0  0  0
   15.1830   -0.1873    0.3930 C   0  0  0  0  0  0  0  0  0  0  0  0
   16.0777   -0.9320    1.1650 C   0  0  0  0  0  0  0  0  0  0  0  0
   17.1945   -0.3188    1.7390 C   0  0  0  0  0  0  0  0  0  0  0  0
   17.4105    1.0470    1.5310 C   0  0  0  0  0  0  0  0  0  0  0  0
   16.5170    1.7891    0.7572 C   0  0  0  0  0  0  0  0  0  0  0  0
   10.2083    9.9477   -0.7209 C   0  0  0  0  0  0  0  0  0  0  0  0
    9.5012   11.1376   -0.5918 C   0  0  0  0  0  0  0  0  0  0  0  0
   11.4565   13.1369   -2.5598 H   0  0  0  0  0  0  0  0  0  0  0  0
   12.7297   11.0163   -2.7502 H   0  0  0  0  0  0  0  0  0  0  0  0
   17.5268    7.9795    0.4251 H   0  0  0  0  0  0  0  0  0  0  0  0
   19.4916    8.8170    1.6829 H   0  0  0  0  0  0  0  0  0  0  0  0
   19.9697   11.2667    1.7766 H   0  0  0  0  0  0  0  0  0  0  0  0
   18.4645   12.8603    0.5835 H   0  0  0  0  0  0  0  0  0  0  0  0
   16.5178   12.0186   -0.6900 H   0  0  0  0  0  0  0  0  0  0  0  0
   14.3448   12.3876   -0.3441 H   0  0  0  0  0  0  0  0  0  0  0  0
   13.4805   13.6961    1.5714 H   0  0  0  0  0  0  0  0  0  0  0  0
   12.3989   12.5374    3.4982 H   0  0  0  0  0  0  0  0  0  0  0  0
   12.1997   10.0474    3.4841 H   0  0  0  0  0  0  0  0  0  0  0  0
   13.0840    8.7394    1.5711 H   0  0  0  0  0  0  0  0  0  0  0  0
   16.6434   10.3957   -3.4930 H   0  0  0  0  0  0  0  0  0  0  0  0
   18.5163   11.9265   -4.0324 H   0  0  0  0  0  0  0  0  0  0  0  0
   21.3398    8.8046   -3.0612 H   0  0  0  0  0  0  0  0  0  0  0  0
   19.4636    7.2743   -2.5386 H   0  0  0  0  0  0  0  0  0  0  0  0
   19.7659    3.6155   -5.0688 H   0  0  0  0  0  0  0  0  0  0  0  0
   20.2024    2.0246   -6.9150 H   0  0  0  0  0  0  0  0  0  0  0  0
   18.3013    0.9533   -8.1240 H   0  0  0  0  0  0  0  0  0  0  0  0
   15.9553    1.5023   -7.4675 H   0  0  0  0  0  0  0  0  0  0  0  0
   15.5217    3.1115   -5.6267 H   0  0  0  0  0  0  0  0  0  0  0  0
   16.2359    7.5283   -5.8765 H   0  0  0  0  0  0  0  0  0  0  0  0
   17.1273    8.7332   -7.8565 H   0  0  0  0  0  0  0  0  0  0  0  0
   19.5290    8.4883   -8.4946 H   0  0  0  0  0  0  0  0  0  0  0  0
   21.0261    7.0354   -7.1268 H   0  0  0  0  0  0  0  0  0  0  0  0
   20.1374    5.8502   -5.1418 H   0  0  0  0  0  0  0  0  0  0  0  0
   18.7121    2.7138   -2.3102 H   0  0  0  0  0  0  0  0  0  0  0  0
   20.0223    0.6386   -2.6467 H   0  0  0  0  0  0  0  0  0  0  0  0
   16.3654   -1.5472   -3.3627 H   0  0  0  0  0  0  0  0  0  0  0  0
   15.0590    0.5288   -3.0106 H   0  0  0  0  0  0  0  0  0  0  0  0
    9.0526    4.2267   -0.0434 H   0  0  0  0  0  0  0  0  0  0  0  0
    7.1797    2.6336    0.2725 H   0  0  0  0  0  0  0  0  0  0  0  0
    9.2365   -0.2649   -2.1833 H   0  0  0  0  0  0  0  0  0  0  0  0
   11.1223    1.3223   -2.4674 H   0  0  0  0  0  0  0  0  0  0  0  0
   10.9588    8.5041   -4.6961 H   0  0  0  0  0  0  0  0  0  0  0  0
    9.6406   10.1023   -6.0644 H   0  0  0  0  0  0  0  0  0  0  0  0
    7.2983   10.6730   -5.4140 H   0  0  0  0  0  0  0  0  0  0  0  0
    6.2968    9.6355   -3.3782 H   0  0  0  0  0  0  0  0  0  0  0  0
    7.6214    8.0557   -2.0060 H   0  0  0  0  0  0  0  0  0  0  0  0
   10.2472    4.1253   -4.5488 H   0  0  0  0  0  0  0  0  0  0  0  0
    8.4782    2.9600   -5.8427 H   0  0  0  0  0  0  0  0  0  0  0  0
    6.0778    3.2349   -5.2117 H   0  0  0  0  0  0  0  0  0  0  0  0
    5.4720    4.6763   -3.2676 H   0  0  0  0  0  0  0  0  0  0  0  0
    7.2414    5.8211   -1.9671 H   0  0  0  0  0  0  0  0  0  0  0  0
   12.2593    3.6506    1.7920 H   0  0  0  0  0  0  0  0  0  0  0  0
   10.9779    2.8540    3.7618 H   0  0  0  0  0  0  0  0  0  0  0  0
   10.2705    0.4630    3.9122 H   0  0  0  0  0  0  0  0  0  0  0  0
   10.8514   -1.1108    2.0656 H   0  0  0  0  0  0  0  0  0  0  0  0
   12.1150   -0.3061    0.0933 H   0  0  0  0  0  0  0  0  0  0  0  0
   14.3291   -0.6854   -0.0666 H   0  0  0  0  0  0  0  0  0  0  0  0
   15.9032   -2.0007    1.3141 H   0  0  0  0  0  0  0  0  0  0  0  0
   17.8939   -0.9022    2.3431 H   0  0  0  0  0  0  0  0  0  0  0  0
   18.2781    1.5392    1.9785 H   0  0  0  0  0  0  0  0  0  0  0  0
   16.6873    2.8586    0.6115 H   0  0  0  0  0  0  0  0  0  0  0  0
    9.8636    9.0576   -0.1918 H   0  0  0  0  0  0  0  0  0  0  0  0
    8.6023   11.1801    0.0259 H   0  0  0  0  0  0  0  0  0  0  0  0
  1  2  3  0
  2  3  1  0
  3  4  2  0
  3106  1  0
  4  5  1  0
  4107  1  0
  5  6  2  0
  5108  1  0
  6  7  1  0
  6105  1  0
  7  8  1  0
  7 76  2  0
  8  9  2  0
  8 18  1  0
  9 10  1  0
 10 11  1  0
 10 25  2  0
 11 12  1  0
 11 18  2  0
 12 13  2  0
 12 17  1  0
 13 14  1  0
 13109  1  0
 14 15  2  0
 14110  1  0
 15 16  1  0
 15111  1  0
 16 17  2  0
 16112  1  0
 17113  1  0
 18 19  1  0
 19 20  2  0
 19 24  1  0
 20 21  1  0
 20114  1  0
 21 22  2  0
 21115  1  0
 22 23  1  0
 22116  1  0
 23 24  2  0
 23117  1  0
 24118  1  0
 25 26  1  0
 25 34  1  0
 26 27  2  0
 26 33  1  0
 27 28  1  0
 27119  1  0
 28 29  2  0
 28120  1  0
 29 30  1  0
 29 32  1  0
 30 31  3  0
 32 33  2  0
 32121  1  0
 33122  1  0
 34 35  1  0
 34 45  2  0
 35 36  1  0
 35 37  1  0
 37 38  2  0
 37 52  1  0
 38 39  1  0
 38 45  1  0
 39 40  2  0
 39 44  1  0
 40 41  1  0
 40123  1  0
 41 42  2  0
 41124  1  0
 42 43  1  0
 42125  1  0
 43 44  2  0
 43126  1  0
 44127  1  0
 45 46  1  0
 46 47  2  0
 46 51  1  0
 47 48  1  0
 47128  1  0
 48 49  2  0
 48129  1  0
 49 50  1  0
 49130  1  0
 50 51  2  0
 50131  1  0
 51132  1  0
 52 53  1  0
 52 61  2  0
 53 54  2  0
 53 60  1  0
 54 55  1  0
 54133  1  0
 55 56  2  0
 55134  1  0
 56 57  1  0
 56 59  1  0
 57 58  3  0
 59 60  2  0
 59135  1  0
 60136  1  0
 61 62  1  0
 61 98  1  0
 62 63  2  0
 63 64  1  0
 63 91  1  0
 64 65  1  0
 64 73  2  0
 65 66  2  0
 65 72  1  0
 66 67  1  0
 66137  1  0
 67 68  2  0
 67138  1  0
 68 69  1  0
 68 71  1  0
 69 70  3  0
 71 72  2  0
 71139  1  0
 72140  1  0
 73 74  1  0
 73 84  1  0
 74 75  1  0
 74 76  1  0
 76 77  1  0
 77 78  1  0
 77 84  2  0
 78 79  2  0
 78 83  1  0
 79 80  1  0
 79141  1  0
 80 81  2  0
 80142  1  0
 81 82  1  0
 81143  1  0
 82 83  2  0
 82144  1  0
 83145  1  0
 84 85  1  0
 85 86  2  0
 85 90  1  0
 86 87  1  0
 86146  1  0
 87 88  2  0
 87147  1  0
 88 89  1  0
 88148  1  0
 89 90  2  0
 89149  1  0
 90150  1  0
 91 92  1  0
 91 98  2  0
 92 93  2  0
 92 97  1  0
 93 94  1  0
 93151  1  0
 94 95  2  0
 94152  1  0
 95 96  1  0
 95153  1  0
 96 97  2  0
 96154  1  0
 97155  1  0
 98 99  1  0
 99100  2  0
 99104  1  0
100101  1  0
100156  1  0
101102  2  0
101157  1  0
102103  1  0
102158  1  0
103104  2  0
103159  1  0
104160  1  0
105106  2  0
105161  1  0
106162  1  0
M  END

