
     RDKit          3D

 55 57  0  0  0  0  0  0  0  0999 V2000
    4.4670   -1.0770    2.8143 C   0  0  0  0  0  0  0  0  0  0  0  0
    4.3559   -2.4748    2.9403 O   0  0  0  0  0  0  0  0  0  0  0  0
    4.7382   -3.2675    1.9040 C   0  0  0  0  0  0  0  0  0  0  0  0
    4.6118   -4.6535    2.1032 C   0  0  0  0  0  0  0  0  0  0  0  0
    4.9810   -5.5430    1.0998 C   0  0  0  0  0  0  0  0  0  0  0  0
    5.4866   -5.0925   -0.1345 C   0  0  0  0  0  0  0  0  0  0  0  0
    5.8541   -6.0686   -1.2295 C   0  0  0  0  0  0  0  0  0  0  0  0
    4.6616   -6.4760   -2.1103 C   0  0  0  0  0  0  0  0  0  0  0  0
    5.0272   -7.5834   -3.0971 C   0  0  0  0  0  0  0  0  0  0  0  0
    5.8047   -8.4801   -2.8109 O   0  0  0  0  0  0  0  0  0  0  0  0
    4.4107   -7.5096   -4.3161 N   0  0  0  0  0  0  0  0  0  0  0  0
    4.6131   -8.5071   -5.3508 C   0  0  0  0  0  0  0  0  0  0  0  0
    3.6706   -9.7240   -5.2212 C   0  0  1  0  0  0  0  0  0  0  0  0
    2.1855   -9.3581   -5.2762 C   0  0  0  0  0  0  0  0  0  0  0  0
    1.8076   -8.9484   -6.6241 N   0  0  0  0  0  0  0  0  0  0  0  0
    0.4612   -8.4018   -6.7066 C   0  0  0  0  0  0  0  0  0  0  0  0
    0.3283   -7.0574   -6.0144 C   0  0  0  0  0  0  0  0  0  0  0  0
    1.2387   -6.0247   -6.2983 C   0  0  0  0  0  0  0  0  0  0  0  0
    1.1178   -4.7763   -5.6836 C   0  0  0  0  0  0  0  0  0  0  0  0
    0.0823   -4.5383   -4.7712 C   0  0  0  0  0  0  0  0  0  0  0  0
   -0.8281   -5.5570   -4.4823 C   0  0  0  0  0  0  0  0  0  0  0  0
   -0.7025   -6.8074   -5.0992 C   0  0  0  0  0  0  0  0  0  0  0  0
    2.0703  -10.0326   -7.5605 C   0  0  0  0  0  0  0  0  0  0  0  0
    3.5496  -10.4068   -7.5087 C   0  0  0  0  0  0  0  0  0  0  0  0
    3.9794  -10.7140   -6.1959 O   0  0  0  0  0  0  0  0  0  0  0  0
    5.6071   -3.7098   -0.3144 C   0  0  0  0  0  0  0  0  0  0  0  0
    5.2424   -2.7968    0.6835 C   0  0  0  0  0  0  0  0  0  0  0  0
    4.1083   -0.6464    3.7591 H   0  0  0  0  0  0  0  0  0  0  0  0
    3.8473   -0.6855    1.9866 H   0  0  0  0  0  0  0  0  0  0  0  0
    5.5131   -0.7580    2.6522 H   0  0  0  0  0  0  0  0  0  0  0  0
    4.2258   -5.0057    3.0621 H   0  0  0  0  0  0  0  0  0  0  0  0
    4.8830   -6.6179    1.2796 H   0  0  0  0  0  0  0  0  0  0  0  0
    6.2809   -6.9887   -0.8021 H   0  0  0  0  0  0  0  0  0  0  0  0
    6.6396   -5.6334   -1.8695 H   0  0  0  0  0  0  0  0  0  0  0  0
    4.2418   -5.5998   -2.6320 H   0  0  0  0  0  0  0  0  0  0  0  0
    3.8528   -6.8690   -1.4682 H   0  0  0  0  0  0  0  0  0  0  0  0
    3.7607   -6.7525   -4.4917 H   0  0  0  0  0  0  0  0  0  0  0  0
    5.6465   -8.8752   -5.2805 H   0  0  0  0  0  0  0  0  0  0  0  0
    4.4773   -8.0200   -6.3267 H   0  0  0  0  0  0  0  0  0  0  0  0
    3.8814  -10.1975   -4.2497 H   0  0  0  0  0  0  0  0  0  0  0  0
    1.9817   -8.5404   -4.5694 H   0  0  0  0  0  0  0  0  0  0  0  0
    1.5876  -10.2369   -4.9426 H   0  0  0  0  0  0  0  0  0  0  0  0
   -0.3018   -9.1027   -6.2977 H   0  0  0  0  0  0  0  0  0  0  0  0
    0.2209   -8.2779   -7.7775 H   0  0  0  0  0  0  0  0  0  0  0  0
    2.0460   -6.2144   -7.0104 H   0  0  0  0  0  0  0  0  0  0  0  0
    1.8294   -3.9808   -5.9217 H   0  0  0  0  0  0  0  0  0  0  0  0
   -0.0128   -3.5618   -4.2895 H   0  0  0  0  0  0  0  0  0  0  0  0
   -1.6381   -5.3824   -3.7693 H   0  0  0  0  0  0  0  0  0  0  0  0
   -1.4151   -7.6028   -4.8620 H   0  0  0  0  0  0  0  0  0  0  0  0
    1.8121   -9.7095   -8.5830 H   0  0  0  0  0  0  0  0  0  0  0  0
    1.4527  -10.9318   -7.3292 H   0  0  0  0  0  0  0  0  0  0  0  0
    4.1458   -9.5805   -7.9426 H   0  0  0  0  0  0  0  0  0  0  0  0
    3.7372  -11.3066   -8.1148 H   0  0  0  0  0  0  0  0  0  0  0  0
    6.0051   -3.3241   -1.2582 H   0  0  0  0  0  0  0  0  0  0  0  0
    5.3611   -1.7289    0.4980 H   0  0  0  0  0  0  0  0  0  0  0  0
  1  2  1  0
  1 28  1  0
  1 29  1  0
  1 30  1  0
  2  3  1  0
  3  4  2  0
  3 27  1  0
  4  5  1  0
  4 31  1  0
  5  6  2  0
  5 32  1  0
  6  7  1  0
  6 26  1  0
  7  8  1  0
  7 33  1  0
  7 34  1  0
  8  9  1  0
  8 35  1  0
  8 36  1  0
  9 10  2  0
  9 11  1  0
 11 12  1  0
 11 37  1  0
 12 13  1  0
 12 38  1  0
 12 39  1  0
 13 14  1  0
 13 25  1  0
 13 40  1  1
 14 15  1  0
 14 41  1  0
 14 42  1  0
 15 16  1  0
 15 23  1  0
 16 17  1  0
 16 43  1  0
 16 44  1  0
 17 18  2  0
 17 22  1  0
 18 19  1  0
 18 45  1  0
 19 20  2  0
 19 46  1  0
 20 21  1  0
 20 47  1  0
 21 22  2  0
 21 48  1  0
 22 49  1  0
 23 24  1  0
 23 50  1  0
 23 51  1  0
 24 25  1  0
 24 52  1  0
 24 53  1  0
 26 27  2  0
 26 54  1  0
 27 55  1  0
M  END

