
     RDKit          3D

 31 32  0  0  0  0  0  0  0  0999 V2000
    3.1626    1.0168    0.1086 N   0  0  0  0  0  0  0  0  0  0  0  0
    2.8148   -0.3954    0.1451 C   0  0  0  0  0  0  0  0  0  0  0  0
    3.4638   -1.1217   -0.9909 C   0  0  0  0  0  0  0  0  0  0  0  0
    4.5257   -0.8197   -1.8040 C   0  0  0  0  0  0  0  0  0  0  0  0
    4.6813   -1.9289   -2.6920 C   0  0  0  0  0  0  0  0  0  0  0  0
    3.7051   -2.8301   -2.3594 C   0  0  0  0  0  0  0  0  0  0  0  0
    3.3811   -4.1557   -2.9256 C   0  0  0  0  0  0  0  0  0  0  0  0
    4.0289   -4.6281   -3.8513 O   0  0  0  0  0  0  0  0  0  0  0  0
    2.3109   -4.7867   -2.3534 N   0  0  0  0  0  0  0  0  0  0  0  0
    1.9305   -6.1308   -2.7488 C   0  0  0  0  0  0  0  0  0  0  0  0
    2.6186   -7.2241   -1.9490 C   0  0  0  0  0  0  0  0  0  0  0  0
    3.7510   -7.8665   -2.4777 C   0  0  0  0  0  0  0  0  0  0  0  0
    4.4173   -8.8703   -1.7726 C   0  0  0  0  0  0  0  0  0  0  0  0
    3.9612   -9.2534   -0.5087 C   0  0  0  0  0  0  0  0  0  0  0  0
    2.8452   -8.6253    0.0496 C   0  0  0  0  0  0  0  0  0  0  0  0
    2.1937   -7.6209   -0.6705 C   0  0  0  0  0  0  0  0  0  0  0  0
    0.6829   -6.7688    0.1573 Br  0  0  0  0  0  0  0  0  0  0  0  0
    2.9568   -2.3376   -1.3224 O   0  0  0  0  0  0  0  0  0  0  0  0
    2.8593    1.4836    0.9615 H   0  0  0  0  0  0  0  0  0  0  0  0
    2.6954    1.4819   -0.6699 H   0  0  0  0  0  0  0  0  0  0  0  0
    1.7270   -0.6244    0.1205 H   0  0  0  0  0  0  0  0  0  0  0  0
    3.1844   -0.8170    1.0986 H   0  0  0  0  0  0  0  0  0  0  0  0
    5.1152    0.0918   -1.7513 H   0  0  0  0  0  0  0  0  0  0  0  0
    5.4148   -2.0656   -3.4826 H   0  0  0  0  0  0  0  0  0  0  0  0
    1.8810   -4.3752   -1.5326 H   0  0  0  0  0  0  0  0  0  0  0  0
    2.1990   -6.2421   -3.8074 H   0  0  0  0  0  0  0  0  0  0  0  0
    0.8388   -6.2265   -2.6560 H   0  0  0  0  0  0  0  0  0  0  0  0
    4.1126   -7.5491   -3.4587 H   0  0  0  0  0  0  0  0  0  0  0  0
    5.2948   -9.3522   -2.2103 H   0  0  0  0  0  0  0  0  0  0  0  0
    4.4731  -10.0397    0.0516 H   0  0  0  0  0  0  0  0  0  0  0  0
    2.4819   -8.9099    1.0385 H   0  0  0  0  0  0  0  0  0  0  0  0
  1  2  1  0
  1 19  1  0
  1 20  1  0
  2  3  1  0
  2 21  1  0
  2 22  1  0
  3  4  2  0
  3 18  1  0
  4  5  1  0
  4 23  1  0
  5  6  2  0
  5 24  1  0
  6  7  1  0
  6 18  1  0
  7  8  2  0
  7  9  1  0
  9 10  1  0
  9 25  1  0
 10 11  1  0
 10 26  1  0
 10 27  1  0
 11 12  2  0
 11 16  1  0
 12 13  1  0
 12 28  1  0
 13 14  2  0
 13 29  1  0
 14 15  1  0
 14 30  1  0
 15 16  2  0
 15 31  1  0
 16 17  1  0
M  END

