
     RDKit          3D

 31 32  0  0  0  0  0  0  0  0999 V2000
    3.8768   -3.1958    0.8313 N   0  0  0  0  0  0  0  0  0  0  0  0
    3.8257   -1.7508    0.6210 C   0  0  0  0  0  0  0  0  0  0  0  0
    4.8816   -1.0594    1.4369 C   0  0  0  0  0  0  0  0  0  0  0  0
    4.6628   -0.0452    2.2804 C   0  0  0  0  0  0  0  0  0  0  0  0
    5.7269    0.6117    3.1043 C   0  0  0  0  0  0  0  0  0  0  0  0
    5.6947    2.0124    2.8534 O   0  0  0  0  0  0  0  0  0  0  0  0
    6.5413    2.8282    3.5256 C   0  0  0  0  0  0  0  0  0  0  0  0
    6.4011    4.2161    3.2264 C   0  0  0  0  0  0  0  0  0  0  0  0
    7.2022    5.1477    3.8383 C   0  0  0  0  0  0  0  0  0  0  0  0
    8.1936    4.7575    4.7864 C   0  0  0  0  0  0  0  0  0  0  0  0
    9.0353    5.7037    5.4307 C   0  0  0  0  0  0  0  0  0  0  0  0
    9.9818    5.2796    6.3395 C   0  0  0  0  0  0  0  0  0  0  0  0
   11.1152    6.5505    7.2033 Br  0  0  0  0  0  0  0  0  0  0  0  0
   10.1353    3.9062    6.6492 C   0  0  0  0  0  0  0  0  0  0  0  0
    9.3256    2.9751    6.0322 C   0  0  0  0  0  0  0  0  0  0  0  0
    8.3351    3.3633    5.0873 C   0  0  0  0  0  0  0  0  0  0  0  0
    7.4939    2.4124    4.4414 C   0  0  0  0  0  0  0  0  0  0  0  0
    3.2433   -3.6740    0.1911 H   0  0  0  0  0  0  0  0  0  0  0  0
    3.5659   -3.4263    1.7756 H   0  0  0  0  0  0  0  0  0  0  0  0
    2.8401   -1.2796    0.8245 H   0  0  0  0  0  0  0  0  0  0  0  0
    4.0405   -1.5664   -0.4483 H   0  0  0  0  0  0  0  0  0  0  0  0
    5.8968   -1.4581    1.3123 H   0  0  0  0  0  0  0  0  0  0  0  0
    3.6486    0.3518    2.4134 H   0  0  0  0  0  0  0  0  0  0  0  0
    6.7225    0.1973    2.8614 H   0  0  0  0  0  0  0  0  0  0  0  0
    5.5445    0.4333    4.1831 H   0  0  0  0  0  0  0  0  0  0  0  0
    5.6399    4.5045    2.4987 H   0  0  0  0  0  0  0  0  0  0  0  0
    7.0858    6.2084    3.6007 H   0  0  0  0  0  0  0  0  0  0  0  0
    8.9251    6.7649    5.1983 H   0  0  0  0  0  0  0  0  0  0  0  0
   10.8916    3.5956    7.3719 H   0  0  0  0  0  0  0  0  0  0  0  0
    9.4440    1.9146    6.2708 H   0  0  0  0  0  0  0  0  0  0  0  0
    7.6249    1.3582    4.6860 H   0  0  0  0  0  0  0  0  0  0  0  0
  1  2  1  0
  1 18  1  0
  1 19  1  0
  2  3  1  0
  2 20  1  0
  2 21  1  0
  3  4  2  0
  3 22  1  0
  4  5  1  0
  4 23  1  0
  5  6  1  0
  5 24  1  0
  5 25  1  0
  6  7  1  0
  7  8  2  0
  7 17  1  0
  8  9  1  0
  8 26  1  0
  9 10  2  0
  9 27  1  0
 10 11  1  0
 10 16  1  0
 11 12  2  0
 11 28  1  0
 12 13  1  0
 12 14  1  0
 14 15  2  0
 14 29  1  0
 15 16  1  0
 15 30  1  0
 16 17  2  0
 17 31  1  0
M  END

