
     RDKit          3D

 39 40  0  0  0  0  0  0  0  0999 V2000
    3.6062   -1.2914   -5.0439 C   0  0  0  0  0  0  0  0  0  0  0  0
    4.5354   -2.4161   -4.5837 C   0  0  0  0  0  0  0  0  0  0  0  0
    5.2358   -2.0831   -3.2667 C   0  0  0  0  0  0  0  0  0  0  0  0
    6.3451   -3.4176   -2.7564 S   0  0  1  0  0  0  0  0  0  0  0  0
    5.5189   -4.5946   -2.4521 O   0  0  0  0  0  0  0  0  0  0  0  0
    7.4378   -3.4812   -3.7356 O   0  0  0  0  0  0  0  0  0  0  0  0
    7.0052   -2.8483   -1.3152 N   0  0  0  0  0  0  0  0  0  0  0  0
    6.6558   -3.4851   -0.0481 C   0  0  0  0  0  0  0  0  0  0  0  0
    7.4423   -4.7656    0.2724 C   0  0  0  0  0  0  0  0  0  0  0  0
    8.8789   -4.5542    0.3651 N   0  0  0  0  0  0  0  0  0  0  0  0
    9.8331   -4.9138   -0.5883 C   0  0  0  0  0  0  0  0  0  0  0  0
    9.5337   -5.6901   -1.8294 C   0  0  0  0  0  0  0  0  0  0  0  0
   11.0252   -4.4459   -0.0813 C   0  0  0  0  0  0  0  0  0  0  0  0
   10.8421   -3.8334    1.1317 N   0  0  0  0  0  0  0  0  0  0  0  0
    9.5539   -3.9096    1.3854 C   0  0  0  0  0  0  0  0  0  0  0  0
    8.8898   -3.3541    2.5899 C   0  0  1  0  0  0  0  0  0  0  0  0
    9.7527   -2.8863    3.7351 C   0  0  0  0  0  0  0  0  0  0  0  0
    9.0239   -1.8688    2.9089 C   0  0  0  0  0  0  0  0  0  0  0  0
    3.1152   -1.5555   -5.9932 H   0  0  0  0  0  0  0  0  0  0  0  0
    4.1590   -0.3511   -5.2046 H   0  0  0  0  0  0  0  0  0  0  0  0
    2.8146   -1.0917   -4.3030 H   0  0  0  0  0  0  0  0  0  0  0  0
    5.3034   -2.6146   -5.3488 H   0  0  0  0  0  0  0  0  0  0  0  0
    3.9688   -3.3525   -4.4546 H   0  0  0  0  0  0  0  0  0  0  0  0
    4.5263   -1.9462   -2.4362 H   0  0  0  0  0  0  0  0  0  0  0  0
    5.8700   -1.1868   -3.3424 H   0  0  0  0  0  0  0  0  0  0  0  0
    7.9932   -2.6315   -1.4478 H   0  0  0  0  0  0  0  0  0  0  0  0
    5.5846   -3.7317   -0.0726 H   0  0  0  0  0  0  0  0  0  0  0  0
    6.8045   -2.7400    0.7497 H   0  0  0  0  0  0  0  0  0  0  0  0
    7.2472   -5.5111   -0.5099 H   0  0  0  0  0  0  0  0  0  0  0  0
    7.0688   -5.1855    1.2209 H   0  0  0  0  0  0  0  0  0  0  0  0
    9.0909   -6.6770   -1.6070 H   0  0  0  0  0  0  0  0  0  0  0  0
   10.4721   -5.8686   -2.3737 H   0  0  0  0  0  0  0  0  0  0  0  0
    8.8516   -5.1638   -2.5166 H   0  0  0  0  0  0  0  0  0  0  0  0
   12.0115   -4.5395   -0.5359 H   0  0  0  0  0  0  0  0  0  0  0  0
    7.9343   -3.8168    2.8538 H   0  0  0  0  0  0  0  0  0  0  0  0
   10.8299   -2.9829    3.5809 H   0  0  0  0  0  0  0  0  0  0  0  0
    9.4010   -3.0849    4.7512 H   0  0  0  0  0  0  0  0  0  0  0  0
    9.6127   -1.2701    2.2084 H   0  0  0  0  0  0  0  0  0  0  0  0
    8.1595   -1.3563    3.3426 H   0  0  0  0  0  0  0  0  0  0  0  0
  1  2  1  0
  1 19  1  0
  1 20  1  0
  1 21  1  0
  2  3  1  0
  2 22  1  0
  2 23  1  0
  3  4  1  0
  3 24  1  0
  3 25  1  0
  4  5  2  0
  4  6  2  0
  4  7  1  1
  7  8  1  0
  7 26  1  0
  8  9  1  0
  8 27  1  0
  8 28  1  0
  9 10  1  0
  9 29  1  0
  9 30  1  0
 10 11  1  0
 10 15  1  0
 11 12  1  0
 11 13  2  0
 12 31  1  0
 12 32  1  0
 12 33  1  0
 13 14  1  0
 13 34  1  0
 14 15  2  0
 15 16  1  0
 16 17  1  0
 16 18  1  0
 16 35  1  1
 17 18  1  0
 17 36  1  0
 17 37  1  0
 18 38  1  0
 18 39  1  0
M  END

