
     RDKit          3D

 30 30  0  0  0  0  0  0  0  0999 V2000
    2.0642   -0.3487    2.0333 C   0  0  0  0  0  0  0  0  0  0  0  0
    2.9385   -0.1392    0.8215 C   0  0  0  0  0  0  0  0  0  0  0  0
    3.5976    1.0835    0.6370 C   0  0  0  0  0  0  0  0  0  0  0  0
    4.4224    1.2924   -0.4719 C   0  0  0  0  0  0  0  0  0  0  0  0
    5.2284    2.8348   -0.6667 Cl  0  0  0  0  0  0  0  0  0  0  0  0
    4.6103    0.2884   -1.4203 C   0  0  0  0  0  0  0  0  0  0  0  0
    3.9522   -0.9305   -1.2374 C   0  0  0  0  0  0  0  0  0  0  0  0
    3.1194   -1.1665   -0.1359 C   0  0  0  0  0  0  0  0  0  0  0  0
    2.4092   -2.4976   -0.0078 C   0  0  0  0  0  0  0  0  0  0  0  0
    0.9830   -2.3863   -0.2977 N   0  0  0  0  0  0  0  0  0  0  0  0
    0.2677   -3.6544   -0.2615 C   0  0  0  0  0  0  0  0  0  0  0  0
   -1.2130   -3.4958   -0.6058 C   0  0  0  0  0  0  0  0  0  0  0  0
   -1.9988   -2.6044    0.3576 C   0  0  0  0  0  0  0  0  0  0  0  0
   -3.3834   -2.5830    0.0719 O   0  0  0  0  0  0  0  0  0  0  0  0
    1.9376    0.5829    2.6033 H   0  0  0  0  0  0  0  0  0  0  0  0
    2.5033   -1.0988    2.7141 H   0  0  0  0  0  0  0  0  0  0  0  0
    1.0748   -0.7267    1.7367 H   0  0  0  0  0  0  0  0  0  0  0  0
    3.4707    1.8874    1.3649 H   0  0  0  0  0  0  0  0  0  0  0  0
    5.2574    0.4584   -2.2821 H   0  0  0  0  0  0  0  0  0  0  0  0
    4.0963   -1.7253   -1.9753 H   0  0  0  0  0  0  0  0  0  0  0  0
    2.5138   -2.8859    1.0210 H   0  0  0  0  0  0  0  0  0  0  0  0
    2.9174   -3.2399   -0.6629 H   0  0  0  0  0  0  0  0  0  0  0  0
    0.8590   -1.9418   -1.2079 H   0  0  0  0  0  0  0  0  0  0  0  0
    0.3631   -4.0699    0.7590 H   0  0  0  0  0  0  0  0  0  0  0  0
    0.7189   -4.4160   -0.9383 H   0  0  0  0  0  0  0  0  0  0  0  0
   -1.6895   -4.4903   -0.6248 H   0  0  0  0  0  0  0  0  0  0  0  0
   -1.3085   -3.0927   -1.6338 H   0  0  0  0  0  0  0  0  0  0  0  0
   -1.5632   -1.5875    0.3710 H   0  0  0  0  0  0  0  0  0  0  0  0
   -1.9031   -3.0008    1.3828 H   0  0  0  0  0  0  0  0  0  0  0  0
   -3.5058   -2.1530   -0.7844 H   0  0  0  0  0  0  0  0  0  0  0  0
  1  2  1  0
  1 15  1  0
  1 16  1  0
  1 17  1  0
  2  3  2  0
  2  8  1  0
  3  4  1  0
  3 18  1  0
  4  5  1  0
  4  6  2  0
  6  7  1  0
  6 19  1  0
  7  8  2  0
  7 20  1  0
  8  9  1  0
  9 10  1  0
  9 21  1  0
  9 22  1  0
 10 11  1  0
 10 23  1  0
 11 12  1  0
 11 24  1  0
 11 25  1  0
 12 13  1  0
 12 26  1  0
 12 27  1  0
 13 14  1  0
 13 28  1  0
 13 29  1  0
 14 30  1  0
M  END

