
     RDKit          3D

 50 52  0  0  0  0  0  0  0  0999 V2000
    1.5728    0.9418    0.5136 C   0  0  0  0  0  0  0  0  0  0  0  0
    2.3417   -0.0463    1.3400 C   0  0  0  0  0  0  0  0  0  0  0  0
    2.4172    0.1405    2.7640 C   0  0  0  0  0  0  0  0  0  0  0  0
    3.1154   -0.7441    3.5867 C   0  0  0  0  0  0  0  0  0  0  0  0
    3.7718   -1.8489    3.0566 C   0  0  0  0  0  0  0  0  0  0  0  0
    4.5322   -2.8291    3.8813 C   0  0  0  0  0  0  0  0  0  0  0  0
    3.6999   -2.0524    1.6049 C   0  0  0  0  0  0  0  0  0  0  0  0
    4.3148   -3.0949    1.1722 O   0  0  0  0  0  0  0  0  0  0  0  0
    4.3977   -3.4968   -0.2919 C   0  0  0  0  0  0  0  0  0  0  0  0
    5.1961   -4.7370   -0.4501 C   0  0  0  0  0  0  0  0  0  0  0  0
    6.6240   -4.6763   -0.4370 C   0  0  0  0  0  0  0  0  0  0  0  0
    7.3346   -5.8826   -0.6223 C   0  0  0  0  0  0  0  0  0  0  0  0
    6.6840   -7.0867   -0.8135 C   0  0  0  0  0  0  0  0  0  0  0  0
    5.2416   -7.1642   -0.8300 C   0  0  0  0  0  0  0  0  0  0  0  0
    4.6096   -8.4324   -1.0524 C   0  0  0  0  0  0  0  0  0  0  0  0
    5.1343   -9.5039   -1.3097 O   0  0  0  0  0  0  0  0  0  0  0  0
    3.1910   -8.3413   -0.8682 O   0  0  0  0  0  0  0  0  0  0  0  0
    2.4818   -9.2942   -1.5902 N   0  0  0  0  0  0  0  0  0  0  0  0
    1.3218   -9.4972   -1.0646 C   0  0  0  0  0  0  0  0  0  0  0  0
    0.8436   -8.8134    0.0499 N   0  0  0  0  0  0  0  0  0  0  0  0
    0.4307  -10.4867   -1.7214 C   0  0  0  0  0  0  0  0  0  0  0  0
    0.9735  -11.4621   -2.5793 C   0  0  0  0  0  0  0  0  0  0  0  0
    0.1452  -12.3996   -3.1934 C   0  0  0  0  0  0  0  0  0  0  0  0
   -1.2373  -12.3848   -2.9642 C   0  0  0  0  0  0  0  0  0  0  0  0
   -1.7847  -11.4175   -2.1184 C   0  0  0  0  0  0  0  0  0  0  0  0
   -0.9575  -10.4725   -1.5030 C   0  0  0  0  0  0  0  0  0  0  0  0
    4.5312   -5.9394   -0.6389 C   0  0  0  0  0  0  0  0  0  0  0  0
    2.9809   -1.1324    0.7808 C   0  0  0  0  0  0  0  0  0  0  0  0
    1.9846    1.9563    0.6429 H   0  0  0  0  0  0  0  0  0  0  0  0
    0.5207    0.9821    0.8413 H   0  0  0  0  0  0  0  0  0  0  0  0
    1.5949    0.6900   -0.5543 H   0  0  0  0  0  0  0  0  0  0  0  0
    1.9116    1.0012    3.2065 H   0  0  0  0  0  0  0  0  0  0  0  0
    3.1494   -0.5679    4.6632 H   0  0  0  0  0  0  0  0  0  0  0  0
    4.5162   -2.5576    4.9442 H   0  0  0  0  0  0  0  0  0  0  0  0
    5.5756   -2.8987    3.5347 H   0  0  0  0  0  0  0  0  0  0  0  0
    4.1159   -3.8416    3.7556 H   0  0  0  0  0  0  0  0  0  0  0  0
    4.8508   -2.6220   -0.7806 H   0  0  0  0  0  0  0  0  0  0  0  0
    3.3538   -3.6188   -0.6092 H   0  0  0  0  0  0  0  0  0  0  0  0
    7.1484   -3.7285   -0.3038 H   0  0  0  0  0  0  0  0  0  0  0  0
    8.4290   -5.8622   -0.6232 H   0  0  0  0  0  0  0  0  0  0  0  0
    7.2419   -8.0118   -0.9664 H   0  0  0  0  0  0  0  0  0  0  0  0
    1.6025   -8.3306    0.5267 H   0  0  0  0  0  0  0  0  0  0  0  0
    0.2814   -9.3824    0.6760 H   0  0  0  0  0  0  0  0  0  0  0  0
    2.0526  -11.4619   -2.7429 H   0  0  0  0  0  0  0  0  0  0  0  0
    0.5807  -13.1542   -3.8541 H   0  0  0  0  0  0  0  0  0  0  0  0
   -1.8829  -13.1246   -3.4450 H   0  0  0  0  0  0  0  0  0  0  0  0
   -2.8633  -11.3909   -1.9409 H   0  0  0  0  0  0  0  0  0  0  0  0
   -1.3954   -9.7007   -0.8659 H   0  0  0  0  0  0  0  0  0  0  0  0
    3.4398   -5.9641   -0.6692 H   0  0  0  0  0  0  0  0  0  0  0  0
    2.9386   -1.2963   -0.2934 H   0  0  0  0  0  0  0  0  0  0  0  0
  1  2  1  0
  1 29  1  0
  1 30  1  0
  1 31  1  0
  2  3  2  0
  2 28  1  0
  3  4  1  0
  3 32  1  0
  4  5  2  0
  4 33  1  0
  5  6  1  0
  5  7  1  0
  6 34  1  0
  6 35  1  0
  6 36  1  0
  7  8  1  0
  7 28  2  0
  8  9  1  0
  9 10  1  0
  9 37  1  0
  9 38  1  0
 10 11  2  0
 10 27  1  0
 11 12  1  0
 11 39  1  0
 12 13  2  0
 12 40  1  0
 13 14  1  0
 13 41  1  0
 14 15  1  0
 14 27  2  0
 15 16  2  0
 15 17  1  0
 17 18  1  0
 18 19  2  0
 19 20  1  0
 19 21  1  0
 20 42  1  0
 20 43  1  0
 21 22  2  0
 21 26  1  0
 22 23  1  0
 22 44  1  0
 23 24  2  0
 23 45  1  0
 24 25  1  0
 24 46  1  0
 25 26  2  0
 25 47  1  0
 26 48  1  0
 27 49  1  0
 28 50  1  0
M  END

