
     RDKit          3D

 53 56  0  0  0  0  0  0  0  0999 V2000
    3.0996   -0.9555   -0.7062 C   0  0  0  0  0  0  0  0  0  0  0  0
    2.4378    0.0007    0.0886 O   0  0  0  0  0  0  0  0  0  0  0  0
    3.1647    0.7878    0.9243 C   0  0  0  0  0  0  0  0  0  0  0  0
    4.5603    0.7287    1.0627 C   0  0  0  0  0  0  0  0  0  0  0  0
    5.2092    1.5857    1.9561 C   0  0  0  0  0  0  0  0  0  0  0  0
    4.5023    2.5142    2.7368 C   0  0  0  0  0  0  0  0  0  0  0  0
    5.1973    3.4637    3.6464 C   0  0  0  0  0  0  0  0  0  0  0  0
    4.9748    4.8432    3.4931 C   0  0  0  0  0  0  0  0  0  0  0  0
    5.5911    5.7917    4.1823 N   0  0  0  0  0  0  0  0  0  0  0  0
    6.5121    5.3743    5.0747 C   0  0  0  0  0  0  0  0  0  0  0  0
    7.1870    6.3335    5.7882 N   0  0  0  0  0  0  0  0  0  0  0  0
    7.0035    7.7586    5.5374 C   0  0  0  0  0  0  0  0  0  0  0  0
    6.7295    8.5189    6.8409 C   0  0  0  0  0  0  0  0  0  0  0  0
    7.7955    8.2473    7.9161 C   0  0  2  0  0  0  0  0  0  0  0  0
    9.0338    8.9606    7.5910 N   0  0  0  0  0  0  0  0  0  0  0  0
    7.9486    6.7196    8.0976 C   0  0  0  0  0  0  0  0  0  0  0  0
    8.2102    5.9993    6.7695 C   0  0  0  0  0  0  0  0  0  0  0  0
    6.7957    4.0865    5.3228 N   0  0  0  0  0  0  0  0  0  0  0  0
    6.1438    3.1271    4.6539 C   0  0  0  0  0  0  0  0  0  0  0  0
    6.4772    1.7340    5.0558 C   0  0  0  0  0  0  0  0  0  0  0  0
    5.5197    0.7037    5.1035 C   0  0  0  0  0  0  0  0  0  0  0  0
    5.8505   -0.5745    5.5425 C   0  0  0  0  0  0  0  0  0  0  0  0
    7.1669   -0.8860    5.9411 C   0  0  0  0  0  0  0  0  0  0  0  0
    7.5128   -2.1705    6.3200 N   0  0  0  0  0  0  0  0  0  0  0  0
    8.1291    0.1451    5.9009 C   0  0  0  0  0  0  0  0  0  0  0  0
    7.7832    1.4241    5.4804 C   0  0  0  0  0  0  0  0  0  0  0  0
    3.1021    2.5613    2.5775 C   0  0  0  0  0  0  0  0  0  0  0  0
    2.4413    1.7165    1.6906 C   0  0  0  0  0  0  0  0  0  0  0  0
    2.3236   -1.4717   -1.2878 H   0  0  0  0  0  0  0  0  0  0  0  0
    3.6401   -1.6997   -0.0931 H   0  0  0  0  0  0  0  0  0  0  0  0
    3.8164   -0.4875   -1.4054 H   0  0  0  0  0  0  0  0  0  0  0  0
    5.1539    0.0263    0.4770 H   0  0  0  0  0  0  0  0  0  0  0  0
    6.2967    1.5307    2.0430 H   0  0  0  0  0  0  0  0  0  0  0  0
    4.2559    5.1833    2.7367 H   0  0  0  0  0  0  0  0  0  0  0  0
    6.1764    7.8762    4.8290 H   0  0  0  0  0  0  0  0  0  0  0  0
    7.9122    8.1630    5.0454 H   0  0  0  0  0  0  0  0  0  0  0  0
    5.7435    8.2091    7.2258 H   0  0  0  0  0  0  0  0  0  0  0  0
    6.6865    9.6004    6.6368 H   0  0  0  0  0  0  0  0  0  0  0  0
    7.4346    8.6714    8.8694 H   0  0  0  0  0  0  0  0  0  0  0  0
    9.4331    8.6258    6.7139 H   0  0  0  0  0  0  0  0  0  0  0  0
    9.7407    8.7863    8.3061 H   0  0  0  0  0  0  0  0  0  0  0  0
    7.0267    6.3104    8.5467 H   0  0  0  0  0  0  0  0  0  0  0  0
    8.7724    6.5050    8.8009 H   0  0  0  0  0  0  0  0  0  0  0  0
    8.2190    4.9119    6.9004 H   0  0  0  0  0  0  0  0  0  0  0  0
    9.2059    6.2926    6.3763 H   0  0  0  0  0  0  0  0  0  0  0  0
    4.4879    0.9068    4.8145 H   0  0  0  0  0  0  0  0  0  0  0  0
    5.0795   -1.3496    5.5799 H   0  0  0  0  0  0  0  0  0  0  0  0
    6.7612   -2.7858    6.6071 H   0  0  0  0  0  0  0  0  0  0  0  0
    8.3598   -2.2793    6.8648 H   0  0  0  0  0  0  0  0  0  0  0  0
    9.1577   -0.0676    6.2071 H   0  0  0  0  0  0  0  0  0  0  0  0
    8.5355    2.2146    5.4729 H   0  0  0  0  0  0  0  0  0  0  0  0
    2.5187    3.2670    3.1747 H   0  0  0  0  0  0  0  0  0  0  0  0
    1.3560    1.7518    1.5753 H   0  0  0  0  0  0  0  0  0  0  0  0
  1  2  1  0
  1 29  1  0
  1 30  1  0
  1 31  1  0
  2  3  1  0
  3  4  2  0
  3 28  1  0
  4  5  1  0
  4 32  1  0
  5  6  2  0
  5 33  1  0
  6  7  1  0
  6 27  1  0
  7  8  2  0
  7 19  1  0
  8  9  1  0
  8 34  1  0
  9 10  2  0
 10 11  1  0
 10 18  1  0
 11 12  1  0
 11 17  1  0
 12 13  1  0
 12 35  1  0
 12 36  1  0
 13 14  1  0
 13 37  1  0
 13 38  1  0
 14 15  1  0
 14 16  1  0
 14 39  1  1
 15 40  1  0
 15 41  1  0
 16 17  1  0
 16 42  1  0
 16 43  1  0
 17 44  1  0
 17 45  1  0
 18 19  2  0
 19 20  1  0
 20 21  2  0
 20 26  1  0
 21 22  1  0
 21 46  1  0
 22 23  2  0
 22 47  1  0
 23 24  1  0
 23 25  1  0
 24 48  1  0
 24 49  1  0
 25 26  2  0
 25 50  1  0
 26 51  1  0
 27 28  2  0
 27 52  1  0
 28 53  1  0
M  END

