
     RDKit          3D

 38 37  0  0  0  0  0  0  0  0999 V2000
    2.1828    0.1155    3.1870 C   0  0  0  0  0  0  0  0  0  0  0  0
    3.3855   -0.5561    2.5224 C   0  0  0  0  0  0  0  0  0  0  0  0
    3.0418   -1.2639    1.2095 C   0  0  0  0  0  0  0  0  0  0  0  0
    4.2418   -1.9689    0.5422 C   0  0  0  0  0  0  0  0  0  0  0  0
    4.8564   -3.0887    1.3381 C   0  0  0  0  0  0  0  0  0  0  0  0
    3.9594   -4.1382    1.7991 C   0  0  0  0  0  0  0  0  0  0  0  0
    4.5089   -5.4365    2.1468 C   0  0  0  0  0  0  0  0  0  0  0  0
    5.0895   -5.6350    3.5183 C   0  0  0  0  0  0  0  0  0  0  0  0
    4.3888   -6.5597    1.2832 C   0  0  0  0  0  0  0  0  0  0  0  0
    4.4631   -7.8088    1.7636 O   0  0  0  0  0  0  0  0  0  0  0  0
    4.0468   -6.5073   -0.1672 C   0  0  0  0  0  0  0  0  0  0  0  0
    2.5976   -6.9270   -0.4831 C   0  0  0  0  0  0  0  0  0  0  0  0
    6.3569   -3.2013    1.3155 C   0  0  0  0  0  0  0  0  0  0  0  0
    6.9945   -3.7318    0.0074 C   0  0  0  0  0  0  0  0  0  0  0  0
    2.4632    0.6164    4.1284 H   0  0  0  0  0  0  0  0  0  0  0  0
    1.3963   -0.6209    3.4251 H   0  0  0  0  0  0  0  0  0  0  0  0
    1.7289    0.8772    2.5296 H   0  0  0  0  0  0  0  0  0  0  0  0
    3.8311   -1.2941    3.2106 H   0  0  0  0  0  0  0  0  0  0  0  0
    4.1713    0.1991    2.3332 H   0  0  0  0  0  0  0  0  0  0  0  0
    2.6153   -0.5336    0.4962 H   0  0  0  0  0  0  0  0  0  0  0  0
    2.2435   -2.0032    1.3997 H   0  0  0  0  0  0  0  0  0  0  0  0
    5.0200   -1.2134    0.3234 H   0  0  0  0  0  0  0  0  0  0  0  0
    3.8930   -2.3184   -0.4614 H   0  0  0  0  0  0  0  0  0  0  0  0
    3.0124   -4.2101    1.2393 H   0  0  0  0  0  0  0  0  0  0  0  0
    5.6089   -4.7168    3.8236 H   0  0  0  0  0  0  0  0  0  0  0  0
    5.7835   -6.4886    3.6292 H   0  0  0  0  0  0  0  0  0  0  0  0
    4.2540   -5.7451    4.2363 H   0  0  0  0  0  0  0  0  0  0  0  0
    4.7033   -7.7933    2.7041 H   0  0  0  0  0  0  0  0  0  0  0  0
    4.7342   -7.1995   -0.6867 H   0  0  0  0  0  0  0  0  0  0  0  0
    4.2366   -5.4887   -0.5289 H   0  0  0  0  0  0  0  0  0  0  0  0
    2.3845   -7.9367   -0.1003 H   0  0  0  0  0  0  0  0  0  0  0  0
    2.4367   -6.9325   -1.5721 H   0  0  0  0  0  0  0  0  0  0  0  0
    1.8787   -6.2247   -0.0345 H   0  0  0  0  0  0  0  0  0  0  0  0
    6.7251   -3.8372    2.1422 H   0  0  0  0  0  0  0  0  0  0  0  0
    6.7891   -2.1983    1.5009 H   0  0  0  0  0  0  0  0  0  0  0  0
    6.6951   -4.7753   -0.1888 H   0  0  0  0  0  0  0  0  0  0  0  0
    8.0986   -3.7030    0.0538 H   0  0  0  0  0  0  0  0  0  0  0  0
    6.6817   -3.1295   -0.8612 H   0  0  0  0  0  0  0  0  0  0  0  0
  1  2  1  0
  1 15  1  0
  1 16  1  0
  1 17  1  0
  2  3  1  0
  2 18  1  0
  2 19  1  0
  3  4  1  0
  3 20  1  0
  3 21  1  0
  4  5  1  0
  4 22  1  0
  4 23  1  0
  5  6  2  0
  5 13  1  0
  6  7  1  0
  6 24  1  0
  7  8  1  0
  7  9  2  0
  8 25  1  0
  8 26  1  0
  8 27  1  0
  9 10  1  0
  9 11  1  0
 10 28  1  0
 11 12  1  0
 11 29  1  0
 11 30  1  0
 12 31  1  0
 12 32  1  0
 12 33  1  0
 13 14  1  0
 13 34  1  0
 13 35  1  0
 14 36  1  0
 14 37  1  0
 14 38  1  0
M  END

