
     RDKit          3D

 68 73  0  0  0  0  0  0  0  0999 V2000
    7.6454   -2.8657    3.2047 C   0  0  0  0  0  0  0  0  0  0  0  0
    6.8140   -1.8173    2.7028 O   0  0  0  0  0  0  0  0  0  0  0  0
    7.3380   -0.5846    2.7099 C   0  0  0  0  0  0  0  0  0  0  0  0
    8.4476   -0.3237    3.1088 O   0  0  0  0  0  0  0  0  0  0  0  0
    6.3586    0.4268    2.1537 C   0  0  0  0  0  0  0  0  0  0  0  0
    6.9413    1.7406    2.1856 N   0  0  0  0  0  0  0  0  0  0  0  0
    6.2277    2.8200    1.7586 C   0  0  0  0  0  0  0  0  0  0  0  0
    5.0823    2.6943    1.3369 O   0  0  0  0  0  0  0  0  0  0  0  0
    6.8852    4.1683    1.8195 C   0  0  0  0  0  0  0  0  0  0  0  0
    6.1324    5.2701    1.3699 C   0  0  0  0  0  0  0  0  0  0  0  0
    6.6202    6.5674    1.3741 C   0  0  0  0  0  0  0  0  0  0  0  0
    7.9329    6.8464    1.8406 C   0  0  0  0  0  0  0  0  0  0  0  0
    8.4300    8.1238    1.8257 N   0  0  0  0  0  0  0  0  0  0  0  0
    7.6019    9.3217    1.6407 C   0  0  0  0  0  0  0  0  0  0  0  0
    8.5431   10.4335    2.1408 C   0  0  2  0  0  0  0  0  0  0  0  0
    8.2510   11.4357    1.7999 H   0  0  0  0  0  0  0  0  0  0  0  0
    9.9112    9.9028    1.6752 C   0  0  0  0  0  0  0  0  0  0  0  0
    9.7222    8.5519    2.3839 C   0  0  1  0  0  0  0  0  0  0  0  0
   10.5085    7.8041    2.2264 H   0  0  0  0  0  0  0  0  0  0  0  0
    9.4981    8.9881    3.8504 C   0  0  0  0  0  0  0  0  0  0  0  0
    8.6742   10.2987    3.6873 C   0  0  1  0  0  0  0  0  0  0  0  0
    7.6758   10.2324    4.1627 H   0  0  0  0  0  0  0  0  0  0  0  0
    9.4082   11.3584    4.2721 O   0  0  0  0  0  0  0  0  0  0  0  0
    8.6836   12.5634    4.4592 C   0  0  0  0  0  0  0  0  0  0  0  0
    9.5684   13.5962    5.0810 C   0  0  0  0  0  0  0  0  0  0  0  0
    9.8312   14.9299    4.6264 C   0  0  0  0  0  0  0  0  0  0  0  0
    9.3058   15.6005    3.4096 C   0  0  0  0  0  0  0  0  0  0  0  0
    7.9662   16.0289    3.3263 C   0  0  0  0  0  0  0  0  0  0  0  0
    6.8867   15.7633    4.6782 Cl  0  0  0  0  0  0  0  0  0  0  0  0
    7.4587   16.6688    2.1933 C   0  0  0  0  0  0  0  0  0  0  0  0
    8.2998   16.8901    1.1025 C   0  0  0  0  0  0  0  0  0  0  0  0
    9.6293   16.4703    1.1388 C   0  0  0  0  0  0  0  0  0  0  0  0
   10.1193   15.8299    2.2808 C   0  0  0  0  0  0  0  0  0  0  0  0
   11.7784   15.2902    2.2714 Cl  0  0  0  0  0  0  0  0  0  0  0  0
   10.6488   15.5710    5.4302 N   0  0  0  0  0  0  0  0  0  0  0  0
   10.9588   14.6713    6.4324 O   0  0  0  0  0  0  0  0  0  0  0  0
   10.3192   13.5051    6.2274 C   0  0  0  0  0  0  0  0  0  0  0  0
   10.5289   12.4189    7.1948 C   0  0  1  0  0  0  0  0  0  0  0  0
   11.8474   12.2938    7.9373 C   0  0  0  0  0  0  0  0  0  0  0  0
   10.6210   12.7192    8.6824 C   0  0  0  0  0  0  0  0  0  0  0  0
    8.7036    5.7528    2.3019 C   0  0  0  0  0  0  0  0  0  0  0  0
    8.1755    4.4708    2.2772 C   0  0  0  0  0  0  0  0  0  0  0  0
    8.9815    3.4852    2.7374 F   0  0  0  0  0  0  0  0  0  0  0  0
    7.0552   -3.7868    3.1263 H   0  0  0  0  0  0  0  0  0  0  0  0
    7.9218   -2.6768    4.2530 H   0  0  0  0  0  0  0  0  0  0  0  0
    8.5677   -2.9513    2.6105 H   0  0  0  0  0  0  0  0  0  0  0  0
    5.4207    0.3753    2.7359 H   0  0  0  0  0  0  0  0  0  0  0  0
    6.0741    0.1213    1.1300 H   0  0  0  0  0  0  0  0  0  0  0  0
    7.8885    1.8258    2.5405 H   0  0  0  0  0  0  0  0  0  0  0  0
    5.1253    5.0544    1.0075 H   0  0  0  0  0  0  0  0  0  0  0  0
    5.9900    7.3745    1.0005 H   0  0  0  0  0  0  0  0  0  0  0  0
    6.6673    9.2671    2.2285 H   0  0  0  0  0  0  0  0  0  0  0  0
    7.3199    9.4681    0.5819 H   0  0  0  0  0  0  0  0  0  0  0  0
   10.7507   10.4876    2.0763 H   0  0  0  0  0  0  0  0  0  0  0  0
   10.0064    9.8073    0.5835 H   0  0  0  0  0  0  0  0  0  0  0  0
   10.4469    9.2288    4.3535 H   0  0  0  0  0  0  0  0  0  0  0  0
    8.9763    8.2194    4.4379 H   0  0  0  0  0  0  0  0  0  0  0  0
    7.7984   12.3675    5.0994 H   0  0  0  0  0  0  0  0  0  0  0  0
    8.2951   12.9528    3.5003 H   0  0  0  0  0  0  0  0  0  0  0  0
    6.4164   16.9891    2.1791 H   0  0  0  0  0  0  0  0  0  0  0  0
    7.9136   17.3932    0.2128 H   0  0  0  0  0  0  0  0  0  0  0  0
   10.2952   16.6307    0.2902 H   0  0  0  0  0  0  0  0  0  0  0  0
   10.0382   11.4916    6.8934 H   0  0  0  0  0  0  0  0  0  0  0  0
   12.6064   13.0517    7.7271 H   0  0  0  0  0  0  0  0  0  0  0  0
   12.2361   11.2837    8.0923 H   0  0  0  0  0  0  0  0  0  0  0  0
   10.5436   13.7677    8.9824 H   0  0  0  0  0  0  0  0  0  0  0  0
   10.1433   12.0102    9.3642 H   0  0  0  0  0  0  0  0  0  0  0  0
    9.7143    5.8752    2.6880 H   0  0  0  0  0  0  0  0  0  0  0  0
  1  2  1  0
  1 44  1  0
  1 45  1  0
  1 46  1  0
  2  3  1  0
  3  4  2  0
  3  5  1  0
  5  6  1  0
  5 47  1  0
  5 48  1  0
  6  7  1  0
  6 49  1  0
  7  8  2  0
  7  9  1  0
  9 10  2  0
  9 42  1  0
 10 11  1  0
 10 50  1  0
 11 12  2  0
 11 51  1  0
 12 13  1  0
 12 41  1  0
 13 14  1  0
 13 18  1  0
 14 15  1  0
 14 52  1  0
 14 53  1  0
 15 16  1  1
 15 17  1  0
 15 21  1  0
 17 18  1  0
 17 54  1  0
 17 55  1  0
 18 19  1  1
 18 20  1  0
 20 21  1  0
 20 56  1  0
 20 57  1  0
 21 22  1  1
 21 23  1  0
 23 24  1  0
 24 25  1  0
 24 58  1  0
 24 59  1  0
 25 26  1  0
 25 37  2  0
 26 27  1  0
 26 35  2  0
 27 28  2  0
 27 33  1  0
 28 29  1  0
 28 30  1  0
 30 31  2  0
 30 60  1  0
 31 32  1  0
 31 61  1  0
 32 33  2  0
 32 62  1  0
 33 34  1  0
 35 36  1  0
 36 37  1  0
 37 38  1  0
 38 39  1  0
 38 40  1  0
 38 63  1  1
 39 40  1  0
 39 64  1  0
 39 65  1  0
 40 66  1  0
 40 67  1  0
 41 42  2  0
 41 68  1  0
 42 43  1  0
M  END

