
     RDKit          3D

 41 44  0  0  0  0  0  0  0  0999 V2000
    2.0816   -0.2375   -2.0594 O   0  0  0  0  0  0  0  0  0  0  0  0
    2.8965   -0.0670   -1.2005 C   0  0  0  0  0  0  0  0  0  0  0  0
    3.2390    1.3157   -0.6517 C   0  0  0  0  0  0  0  0  0  0  0  0
    4.2060    1.8816   -1.4872 O   0  0  0  0  0  0  0  0  0  0  0  0
    4.7543    3.0906   -0.9813 C   0  0  0  0  0  0  0  0  0  0  0  0
    5.4590    2.9619    0.1584 N   0  0  0  0  0  0  0  0  0  0  0  0
    5.9884    4.0985    0.6251 C   0  0  0  0  0  0  0  0  0  0  0  0
    5.9048    5.3090    0.0977 N   0  0  0  0  0  0  0  0  0  0  0  0
    5.1886    5.4404   -1.0729 C   0  0  0  0  0  0  0  0  0  0  0  0
    5.0509    6.6876   -1.6945 C   0  0  0  0  0  0  0  0  0  0  0  0
    4.3135    6.8398   -2.8933 C   0  0  0  0  0  0  0  0  0  0  0  0
    3.7190    5.7143   -3.4575 C   0  0  0  0  0  0  0  0  0  0  0  0
    2.7163    5.9115   -5.0881 Br  0  0  0  0  0  0  0  0  0  0  0  0
    3.8176    4.4401   -2.8934 C   0  0  0  0  0  0  0  0  0  0  0  0
    4.5559    4.2829   -1.6822 C   0  0  0  0  0  0  0  0  0  0  0  0
    3.4756   -1.2985   -0.6104 N   0  0  0  0  0  0  0  0  0  0  0  0
    2.6463   -2.5085   -0.8189 C   0  0  0  0  0  0  0  0  0  0  0  0
    2.6388   -3.3825    0.4246 C   0  0  0  0  0  0  0  0  0  0  0  0
    4.0650   -3.8095    0.7505 C   0  0  0  0  0  0  0  0  0  0  0  0
    5.0213   -2.6465    0.7096 C   0  0  0  0  0  0  0  0  0  0  0  0
    6.2488   -2.7228    1.3493 C   0  0  0  0  0  0  0  0  0  0  0  0
    7.1635   -1.6579    1.3182 C   0  0  0  0  0  0  0  0  0  0  0  0
    6.8540   -0.4759    0.6140 C   0  0  0  0  0  0  0  0  0  0  0  0
    5.6506   -0.3527   -0.0392 C   0  0  0  0  0  0  0  0  0  0  0  0
    4.6864   -1.4154    0.0075 C   0  0  0  0  0  0  0  0  0  0  0  0
    3.5785    1.2745    0.3980 H   0  0  0  0  0  0  0  0  0  0  0  0
    2.2869    1.8759   -0.6850 H   0  0  0  0  0  0  0  0  0  0  0  0
    6.5624    4.0124    1.5588 H   0  0  0  0  0  0  0  0  0  0  0  0
    5.5300    7.5461   -1.2212 H   0  0  0  0  0  0  0  0  0  0  0  0
    4.2127    7.8167   -3.3658 H   0  0  0  0  0  0  0  0  0  0  0  0
    3.3514    3.5777   -3.3649 H   0  0  0  0  0  0  0  0  0  0  0  0
    3.0559   -3.0569   -1.6852 H   0  0  0  0  0  0  0  0  0  0  0  0
    1.6447   -2.1740   -1.1024 H   0  0  0  0  0  0  0  0  0  0  0  0
    1.9979   -4.2575    0.2435 H   0  0  0  0  0  0  0  0  0  0  0  0
    2.1955   -2.8241    1.2659 H   0  0  0  0  0  0  0  0  0  0  0  0
    4.4018   -4.5535    0.0035 H   0  0  0  0  0  0  0  0  0  0  0  0
    4.1303   -4.3101    1.7283 H   0  0  0  0  0  0  0  0  0  0  0  0
    6.5012   -3.6328    1.8979 H   0  0  0  0  0  0  0  0  0  0  0  0
    8.1178   -1.7501    1.8399 H   0  0  0  0  0  0  0  0  0  0  0  0
    7.5576    0.3552    0.5764 H   0  0  0  0  0  0  0  0  0  0  0  0
    5.4485    0.5514   -0.6088 H   0  0  0  0  0  0  0  0  0  0  0  0
  1  2  2  0
  2  3  1  0
  2 16  1  0
  3  4  1  0
  3 26  1  0
  3 27  1  0
  4  5  1  0
  5  6  2  0
  5 15  1  0
  6  7  1  0
  7  8  2  0
  7 28  1  0
  8  9  1  0
  9 10  1  0
  9 15  2  0
 10 11  2  0
 10 29  1  0
 11 12  1  0
 11 30  1  0
 12 13  1  0
 12 14  2  0
 14 15  1  0
 14 31  1  0
 16 17  1  0
 16 25  1  0
 17 18  1  0
 17 32  1  0
 17 33  1  0
 18 19  1  0
 18 34  1  0
 18 35  1  0
 19 20  1  0
 19 36  1  0
 19 37  1  0
 20 21  2  0
 20 25  1  0
 21 22  1  0
 21 38  1  0
 22 23  2  0
 22 39  1  0
 23 24  1  0
 23 40  1  0
 24 25  2  0
 24 41  1  0
M  END

