
     RDKit          3D

 73 82  0  0  0  0  0  0  0  0999 V2000
    1.6130   -0.9914   -0.1058 O   0  0  0  0  0  0  0  0  0  0  0  0
    1.5949    0.4088   -0.5787 S   0  0  2  0  0  0  0  0  0  0  0  0
    0.2851    0.9231   -1.0332 O   0  0  0  0  0  0  0  0  0  0  0  0
    2.8826    0.7327   -1.7643 C   0  0  0  0  0  0  0  0  0  0  0  0
    2.9770    0.1689   -3.0321 C   0  0  0  0  0  0  0  0  0  0  0  0
    4.0470    0.5262   -3.8558 C   0  0  0  0  0  0  0  0  0  0  0  0
    5.0122    1.4538   -3.3841 C   0  0  0  0  0  0  0  0  0  0  0  0
    4.9187    2.0160   -2.1200 C   0  0  0  0  0  0  0  0  0  0  0  0
    3.8429    1.6720   -1.2600 C   0  0  0  0  0  0  0  0  0  0  0  0
    3.5428    2.1116    0.0684 C   0  0  0  0  0  0  0  0  0  0  0  0
    4.2237    3.0262    0.9084 C   0  0  0  0  0  0  0  0  0  0  0  0
    3.7311    3.2971    2.1748 C   0  0  0  0  0  0  0  0  0  0  0  0
    4.4348    4.2522    3.0117 N   0  0  0  0  0  0  0  0  0  0  0  0
    5.4962    3.9489    3.8789 C   0  0  0  0  0  0  0  0  0  0  0  0
    6.1041    2.7138    4.1060 C   0  0  0  0  0  0  0  0  0  0  0  0
    7.1555    2.6781    5.0275 C   0  0  0  0  0  0  0  0  0  0  0  0
    7.5841    3.8366    5.6974 C   0  0  0  0  0  0  0  0  0  0  0  0
    6.9671    5.0702    5.4626 C   0  0  0  0  0  0  0  0  0  0  0  0
    5.9131    5.1291    4.5458 C   0  0  0  0  0  0  0  0  0  0  0  0
    5.0488    6.1924    4.0550 C   0  0  0  0  0  0  0  0  0  0  0  0
    4.9448    7.5468    4.3069 C   0  0  0  0  0  0  0  0  0  0  0  0
    3.9722    8.3351    3.6240 C   0  0  0  0  0  0  0  0  0  0  0  0
    3.8615    9.7663    3.8683 C   0  0  0  0  0  0  0  0  0  0  0  0
    4.4162   10.3620    5.0485 C   0  0  0  0  0  0  0  0  0  0  0  0
    4.3252   11.7138    5.3168 C   0  0  0  0  0  0  0  0  0  0  0  0
    3.6649   12.5341    4.3793 C   0  0  0  0  0  0  0  0  0  0  0  0
    3.1116   11.9827    3.1798 C   0  0  0  0  0  0  0  0  0  0  0  0
    3.2041   10.6221    2.9394 C   0  0  0  0  0  0  0  0  0  0  0  0
    2.5469   13.0993    2.4364 C   0  0  0  0  0  0  0  0  0  0  0  0
    1.8730   13.2099    1.2154 C   0  0  0  0  0  0  0  0  0  0  0  0
    1.4407   14.4712    0.7970 C   0  0  0  0  0  0  0  0  0  0  0  0
    1.6709   15.6092    1.5877 C   0  0  0  0  0  0  0  0  0  0  0  0
    2.3413   15.5227    2.8117 C   0  0  0  0  0  0  0  0  0  0  0  0
    2.7784   14.2599    3.2160 C   0  0  0  0  0  0  0  0  0  0  0  0
    3.4600   13.8906    4.3930 N   0  0  0  0  0  0  0  0  0  0  0  0
    3.8631   14.7868    5.4315 C   0  0  0  0  0  0  0  0  0  0  0  0
    3.3087   14.6632    6.7125 C   0  0  0  0  0  0  0  0  0  0  0  0
    3.7106   15.5369    7.7258 C   0  0  0  0  0  0  0  0  0  0  0  0
    4.6509   16.5371    7.4603 C   0  0  0  0  0  0  0  0  0  0  0  0
    5.1960   16.6610    6.1784 C   0  0  0  0  0  0  0  0  0  0  0  0
    4.8089   15.7850    5.1617 C   0  0  0  0  0  0  0  0  0  0  0  0
    3.1057    7.6801    2.6848 C   0  0  0  0  0  0  0  0  0  0  0  0
    3.1776    6.3297    2.4245 C   0  0  0  0  0  0  0  0  0  0  0  0
    4.1594    5.5731    3.1067 C   0  0  0  0  0  0  0  0  0  0  0  0
    2.5532    2.6839    2.6970 C   0  0  0  0  0  0  0  0  0  0  0  0
    1.8672    1.7826    1.8780 C   0  0  0  0  0  0  0  0  0  0  0  0
    2.3443    1.5088    0.6049 C   0  0  0  0  0  0  0  0  0  0  0  0
    2.2204   -0.5438   -3.3710 H   0  0  0  0  0  0  0  0  0  0  0  0
    4.1413    0.0950   -4.8545 H   0  0  0  0  0  0  0  0  0  0  0  0
    5.8490    1.7299   -4.0318 H   0  0  0  0  0  0  0  0  0  0  0  0
    5.6801    2.7261   -1.7847 H   0  0  0  0  0  0  0  0  0  0  0  0
    5.1331    3.5238    0.5625 H   0  0  0  0  0  0  0  0  0  0  0  0
    5.7668    1.8196    3.5814 H   0  0  0  0  0  0  0  0  0  0  0  0
    7.6540    1.7270    5.2287 H   0  0  0  0  0  0  0  0  0  0  0  0
    8.4098    3.7722    6.4094 H   0  0  0  0  0  0  0  0  0  0  0  0
    7.3066    5.9666    5.9874 H   0  0  0  0  0  0  0  0  0  0  0  0
    5.6385    8.0147    5.0057 H   0  0  0  0  0  0  0  0  0  0  0  0
    4.9041    9.7259    5.7862 H   0  0  0  0  0  0  0  0  0  0  0  0
    4.7484   12.1318    6.2308 H   0  0  0  0  0  0  0  0  0  0  0  0
    2.8012   10.2156    2.0122 H   0  0  0  0  0  0  0  0  0  0  0  0
    1.6847   12.3280    0.5990 H   0  0  0  0  0  0  0  0  0  0  0  0
    0.9142   14.5741   -0.1541 H   0  0  0  0  0  0  0  0  0  0  0  0
    1.3174   16.5835    1.2427 H   0  0  0  0  0  0  0  0  0  0  0  0
    2.5115   16.4083    3.4254 H   0  0  0  0  0  0  0  0  0  0  0  0
    2.5596   13.8926    6.9063 H   0  0  0  0  0  0  0  0  0  0  0  0
    3.2783   15.4407    8.7244 H   0  0  0  0  0  0  0  0  0  0  0  0
    4.9588   17.2221    8.2536 H   0  0  0  0  0  0  0  0  0  0  0  0
    5.9341   17.4385    5.9686 H   0  0  0  0  0  0  0  0  0  0  0  0
    5.2416   15.8644    4.1623 H   0  0  0  0  0  0  0  0  0  0  0  0
    2.3321    8.2584    2.1803 H   0  0  0  0  0  0  0  0  0  0  0  0
    2.5000    5.8445    1.7226 H   0  0  0  0  0  0  0  0  0  0  0  0
    2.2062    2.9152    3.7040 H   0  0  0  0  0  0  0  0  0  0  0  0
    0.9575    1.2934    2.2366 H   0  0  0  0  0  0  0  0  0  0  0  0
  1  2  2  0
  2  3  2  0
  2  4  1  6
  2 47  1  0
  4  5  2  0
  4  9  1  0
  5  6  1  0
  5 48  1  0
  6  7  2  0
  6 49  1  0
  7  8  1  0
  7 50  1  0
  8  9  2  0
  8 51  1  0
  9 10  1  0
 10 11  2  0
 10 47  1  0
 11 12  1  0
 11 52  1  0
 12 13  1  0
 12 45  2  0
 13 14  1  0
 13 44  1  0
 14 15  2  0
 14 19  1  0
 15 16  1  0
 15 53  1  0
 16 17  2  0
 16 54  1  0
 17 18  1  0
 17 55  1  0
 18 19  2  0
 18 56  1  0
 19 20  1  0
 20 21  1  0
 20 44  2  0
 21 22  2  0
 21 57  1  0
 22 23  1  0
 22 42  1  0
 23 24  2  0
 23 28  1  0
 24 25  1  0
 24 58  1  0
 25 26  2  0
 25 59  1  0
 26 27  1  0
 26 35  1  0
 27 28  2  0
 27 29  1  0
 28 60  1  0
 29 30  2  0
 29 34  1  0
 30 31  1  0
 30 61  1  0
 31 32  2  0
 31 62  1  0
 32 33  1  0
 32 63  1  0
 33 34  2  0
 33 64  1  0
 34 35  1  0
 35 36  1  0
 36 37  2  0
 36 41  1  0
 37 38  1  0
 37 65  1  0
 38 39  2  0
 38 66  1  0
 39 40  1  0
 39 67  1  0
 40 41  2  0
 40 68  1  0
 41 69  1  0
 42 43  2  0
 42 70  1  0
 43 44  1  0
 43 71  1  0
 45 46  1  0
 45 72  1  0
 46 47  2  0
 46 73  1  0
M  END

