
     RDKit          3D

 65 66  0  0  0  0  0  0  0  0999 V2000
   15.2078    1.6791    0.0611 C   0  0  0  0  0  0  0  0  0  0  0  0
   13.9826    1.0625    0.7376 C   0  0  0  0  0  0  0  0  0  0  0  0
   13.1796    2.0600    1.5786 C   0  0  0  0  0  0  0  0  0  0  0  0
   11.9495    1.4500    2.2538 C   0  0  0  0  0  0  0  0  0  0  0  0
   11.1312    2.4376    3.0978 C   0  0  0  0  0  0  0  0  0  0  0  0
   10.5687    3.5490    2.3486 N   0  0  0  0  0  0  0  0  0  0  0  0
    9.4337    3.3931    1.6314 C   0  0  0  0  0  0  0  0  0  0  0  0
    8.8251    2.3349    1.5584 O   0  0  0  0  0  0  0  0  0  0  0  0
    8.9300    4.5529    0.9399 N   0  0  0  0  0  0  0  0  0  0  0  0
    7.6850    4.3306    0.2088 C   0  0  0  0  0  0  0  0  0  0  0  0
    9.4700    5.8420    0.9289 C   0  0  0  0  0  0  0  0  0  0  0  0
    8.7687    6.9067    0.3030 C   0  0  0  0  0  0  0  0  0  0  0  0
    9.3385    8.1730    0.3134 C   0  0  0  0  0  0  0  0  0  0  0  0
   10.5725    8.3890    0.9291 C   0  0  0  0  0  0  0  0  0  0  0  0
   11.2073    7.2933    1.5306 C   0  0  0  0  0  0  0  0  0  0  0  0
   12.5294    7.4278    2.1991 C   0  0  0  0  0  0  0  0  0  0  0  0
   12.9311    8.6352    2.7991 C   0  0  0  0  0  0  0  0  0  0  0  0
   14.1719    8.7457    3.4195 C   0  0  0  0  0  0  0  0  0  0  0  0
   15.0699    7.6576    3.4728 C   0  0  0  0  0  0  0  0  0  0  0  0
   16.3477    7.8538    4.1519 C   0  0  0  0  0  0  0  0  0  0  0  0
   17.3234    6.9611    4.4511 C   0  0  0  0  0  0  0  0  0  0  0  0
   17.2785    5.6513    4.0851 O   0  0  0  0  0  0  0  0  0  0  0  0
   17.1658    4.6699    5.1254 C   0  0  0  0  0  0  0  0  0  0  0  0
   17.3238    3.2985    4.5016 C   0  0  0  0  0  0  0  0  0  0  0  0
   18.5642    7.4802    5.1230 C   0  0  0  0  0  0  0  0  0  0  0  0
   18.7001    8.6152    5.5224 O   0  0  0  0  0  0  0  0  0  0  0  0
   19.5238    6.5387    5.2090 O   0  0  0  0  0  0  0  0  0  0  0  0
   20.7794    6.9293    5.7957 C   0  0  0  0  0  0  0  0  0  0  0  0
   20.7565    6.8243    7.3117 C   0  0  0  0  0  0  0  0  0  0  0  0
   14.6680    6.4507    2.8569 C   0  0  0  0  0  0  0  0  0  0  0  0
   13.4255    6.3425    2.2414 C   0  0  0  0  0  0  0  0  0  0  0  0
   10.6558    6.0680    1.5126 N   0  0  0  0  0  0  0  0  0  0  0  0
   15.7609    0.9346   -0.5338 H   0  0  0  0  0  0  0  0  0  0  0  0
   15.9086    2.0976    0.8033 H   0  0  0  0  0  0  0  0  0  0  0  0
   14.9207    2.4999   -0.6175 H   0  0  0  0  0  0  0  0  0  0  0  0
   14.2999    0.2190    1.3779 H   0  0  0  0  0  0  0  0  0  0  0  0
   13.3193    0.6218   -0.0284 H   0  0  0  0  0  0  0  0  0  0  0  0
   12.8600    2.8991    0.9340 H   0  0  0  0  0  0  0  0  0  0  0  0
   13.8415    2.5023    2.3485 H   0  0  0  0  0  0  0  0  0  0  0  0
   12.2623    0.6194    2.9128 H   0  0  0  0  0  0  0  0  0  0  0  0
   11.2812    1.0079    1.4957 H   0  0  0  0  0  0  0  0  0  0  0  0
   11.7642    2.8687    3.8914 H   0  0  0  0  0  0  0  0  0  0  0  0
   10.3086    1.8932    3.5870 H   0  0  0  0  0  0  0  0  0  0  0  0
   11.0019    4.4762    2.3232 H   0  0  0  0  0  0  0  0  0  0  0  0
    7.4490    3.2651    0.2824 H   0  0  0  0  0  0  0  0  0  0  0  0
    7.7952    4.6087   -0.8514 H   0  0  0  0  0  0  0  0  0  0  0  0
    6.8526    4.9097    0.6421 H   0  0  0  0  0  0  0  0  0  0  0  0
    7.8046    6.7540   -0.1744 H   0  0  0  0  0  0  0  0  0  0  0  0
    8.8148    9.0016   -0.1707 H   0  0  0  0  0  0  0  0  0  0  0  0
   11.0409    9.3729    0.9171 H   0  0  0  0  0  0  0  0  0  0  0  0
   12.2556    9.4932    2.8053 H   0  0  0  0  0  0  0  0  0  0  0  0
   14.4556    9.6922    3.8873 H   0  0  0  0  0  0  0  0  0  0  0  0
   16.5695    8.8756    4.4696 H   0  0  0  0  0  0  0  0  0  0  0  0
   16.1794    4.7767    5.6139 H   0  0  0  0  0  0  0  0  0  0  0  0
   17.9439    4.8420    5.8863 H   0  0  0  0  0  0  0  0  0  0  0  0
   16.5457    3.1133    3.7444 H   0  0  0  0  0  0  0  0  0  0  0  0
   17.2446    2.5183    5.2747 H   0  0  0  0  0  0  0  0  0  0  0  0
   18.3067    3.2098    4.0143 H   0  0  0  0  0  0  0  0  0  0  0  0
   21.0141    7.9561    5.4788 H   0  0  0  0  0  0  0  0  0  0  0  0
   21.5159    6.2402    5.3578 H   0  0  0  0  0  0  0  0  0  0  0  0
   20.0280    7.5279    7.7404 H   0  0  0  0  0  0  0  0  0  0  0  0
   21.7506    7.0726    7.7171 H   0  0  0  0  0  0  0  0  0  0  0  0
   20.5009    5.8033    7.6361 H   0  0  0  0  0  0  0  0  0  0  0  0
   15.3541    5.6054    2.8523 H   0  0  0  0  0  0  0  0  0  0  0  0
   13.1439    5.4041    1.7611 H   0  0  0  0  0  0  0  0  0  0  0  0
  1  2  1  0
  1 33  1  0
  1 34  1  0
  1 35  1  0
  2  3  1  0
  2 36  1  0
  2 37  1  0
  3  4  1  0
  3 38  1  0
  3 39  1  0
  4  5  1  0
  4 40  1  0
  4 41  1  0
  5  6  1  0
  5 42  1  0
  5 43  1  0
  6  7  1  0
  6 44  1  0
  7  8  2  0
  7  9  1  0
  9 10  1  0
  9 11  1  0
 10 45  1  0
 10 46  1  0
 10 47  1  0
 11 12  2  0
 11 32  1  0
 12 13  1  0
 12 48  1  0
 13 14  2  0
 13 49  1  0
 14 15  1  0
 14 50  1  0
 15 16  1  0
 15 32  2  0
 16 17  2  0
 16 31  1  0
 17 18  1  0
 17 51  1  0
 18 19  2  0
 18 52  1  0
 19 20  1  0
 19 30  1  0
 20 21  2  0
 20 53  1  0
 21 22  1  0
 21 25  1  0
 22 23  1  0
 23 24  1  0
 23 54  1  0
 23 55  1  0
 24 56  1  0
 24 57  1  0
 24 58  1  0
 25 26  2  0
 25 27  1  0
 27 28  1  0
 28 29  1  0
 28 59  1  0
 28 60  1  0
 29 61  1  0
 29 62  1  0
 29 63  1  0
 30 31  2  0
 30 64  1  0
 31 65  1  0
M  END

