
     RDKit          3D

 50 53  0  0  0  0  0  0  0  0999 V2000
    8.4525   -1.2640   -2.5603 C   0  0  0  0  0  0  0  0  0  0  0  0
    9.0805   -0.2724   -3.3423 O   0  0  0  0  0  0  0  0  0  0  0  0
    8.3572    0.7925   -3.7728 C   0  0  0  0  0  0  0  0  0  0  0  0
    7.0087    1.0144   -3.4608 C   0  0  0  0  0  0  0  0  0  0  0  0
    6.3371    2.1470   -3.9478 C   0  0  0  0  0  0  0  0  0  0  0  0
    4.8780    2.3737   -3.5496 C   0  0  1  0  0  0  0  0  0  0  0  0
    4.5513    1.4766   -3.0034 H   0  0  0  0  0  0  0  0  0  0  0  0
    4.6824    3.5741   -2.6034 C   0  0  0  0  0  0  0  0  0  0  0  0
    4.6823    4.9379   -3.2720 C   0  0  0  0  0  0  0  0  0  0  0  0
    5.0826    5.9426   -2.7365 O   0  0  0  0  0  0  0  0  0  0  0  0
    4.1074    4.9581   -4.5576 N   0  0  0  0  0  0  0  0  0  0  0  0
    3.6281    3.7980   -5.1728 C   0  0  0  0  0  0  0  0  0  0  0  0
    3.9493    2.5461   -4.7497 C   0  0  0  0  0  0  0  0  0  0  0  0
    3.4742    1.3928   -5.4348 C   0  0  0  0  0  0  0  0  0  0  0  0
    3.0961    0.4259   -5.9607 N   0  0  0  0  0  0  0  0  0  0  0  0
    2.5782    4.1902   -6.5451 S   0  0  0  0  0  0  0  0  0  0  0  0
    3.4392    5.8028   -6.6966 C   0  0  0  0  0  0  0  0  0  0  0  0
    3.8012    6.2385   -5.2548 C   0  0  1  0  0  0  0  0  0  0  0  0
    2.7536    6.9211   -4.6356 O   0  0  0  0  0  0  0  0  0  0  0  0
    4.9878    7.1570   -5.2788 C   0  0  0  0  0  0  0  0  0  0  0  0
    5.1426    8.4922   -5.0484 C   0  0  0  0  0  0  0  0  0  0  0  0
    6.5319    8.7692   -5.2845 C   0  0  0  0  0  0  0  0  0  0  0  0
    7.1038    7.5828   -5.6428 C   0  0  0  0  0  0  0  0  0  0  0  0
    6.1658    6.5980   -5.6546 O   0  0  0  0  0  0  0  0  0  0  0  0
    7.0255    3.0515   -4.7630 C   0  0  0  0  0  0  0  0  0  0  0  0
    8.3767    2.8464   -5.0722 C   0  0  0  0  0  0  0  0  0  0  0  0
    9.0218    3.7907   -5.8203 O   0  0  0  0  0  0  0  0  0  0  0  0
    9.5048    3.3878   -7.0966 C   0  0  0  0  0  0  0  0  0  0  0  0
    9.0562    1.7182   -4.5808 C   0  0  0  0  0  0  0  0  0  0  0  0
   10.3656    1.5113   -4.9125 O   0  0  0  0  0  0  0  0  0  0  0  0
   11.3173    1.7733   -3.8893 C   0  0  0  0  0  0  0  0  0  0  0  0
    9.2148   -2.0269   -2.3531 H   0  0  0  0  0  0  0  0  0  0  0  0
    7.6103   -1.7364   -3.0966 H   0  0  0  0  0  0  0  0  0  0  0  0
    8.0819   -0.8593   -1.6010 H   0  0  0  0  0  0  0  0  0  0  0  0
    6.4675    0.3026   -2.8372 H   0  0  0  0  0  0  0  0  0  0  0  0
    5.4448    3.6021   -1.8142 H   0  0  0  0  0  0  0  0  0  0  0  0
    3.6978    3.4837   -2.1086 H   0  0  0  0  0  0  0  0  0  0  0  0
    2.7834    6.5508   -7.1587 H   0  0  0  0  0  0  0  0  0  0  0  0
    4.3424    5.6742   -7.3083 H   0  0  0  0  0  0  0  0  0  0  0  0
    1.9469    6.3960   -4.7505 H   0  0  0  0  0  0  0  0  0  0  0  0
    4.3646    9.1783   -4.7259 H   0  0  0  0  0  0  0  0  0  0  0  0
    7.0377    9.7275   -5.1877 H   0  0  0  0  0  0  0  0  0  0  0  0
    8.1135    7.2741   -5.8994 H   0  0  0  0  0  0  0  0  0  0  0  0
    6.5542    3.9446   -5.1735 H   0  0  0  0  0  0  0  0  0  0  0  0
    9.9746    4.2731   -7.5483 H   0  0  0  0  0  0  0  0  0  0  0  0
    8.6745    3.0549   -7.7457 H   0  0  0  0  0  0  0  0  0  0  0  0
   10.2480    2.5804   -7.0142 H   0  0  0  0  0  0  0  0  0  0  0  0
   12.3098    1.5882   -4.3241 H   0  0  0  0  0  0  0  0  0  0  0  0
   11.1727    1.1039   -3.0258 H   0  0  0  0  0  0  0  0  0  0  0  0
   11.2616    2.8238   -3.5530 H   0  0  0  0  0  0  0  0  0  0  0  0
  1  2  1  0
  1 32  1  0
  1 33  1  0
  1 34  1  0
  2  3  1  0
  3  4  2  0
  3 29  1  0
  4  5  1  0
  4 35  1  0
  5  6  1  0
  5 25  2  0
  6  7  1  1
  6  8  1  0
  6 13  1  0
  8  9  1  0
  8 36  1  0
  8 37  1  0
  9 10  2  0
  9 11  1  0
 11 12  1  0
 11 18  1  0
 12 13  2  0
 12 16  1  0
 13 14  1  0
 14 15  3  0
 16 17  1  0
 17 18  1  0
 17 38  1  0
 17 39  1  0
 18 19  1  1
 18 20  1  0
 19 40  1  0
 20 21  2  0
 20 24  1  0
 21 22  1  0
 21 41  1  0
 22 23  2  0
 22 42  1  0
 23 24  1  0
 23 43  1  0
 25 26  1  0
 25 44  1  0
 26 27  1  0
 26 29  2  0
 27 28  1  0
 28 45  1  0
 28 46  1  0
 28 47  1  0
 29 30  1  0
 30 31  1  0
 31 48  1  0
 31 49  1  0
 31 50  1  0
M  END

