
     RDKit          3D

 65 68  0  0  0  0  0  0  0  0999 V2000
    3.9625   -2.5758    1.9140 C   0  0  0  0  0  0  0  0  0  0  0  0
    4.5295   -1.2940    1.2882 C   0  0  2  0  0  0  0  0  0  0  0  0
    5.8779   -1.5857    0.6157 C   0  0  0  0  0  0  0  0  0  0  0  0
    4.8412   -0.0294    2.6501 S   0  0  0  0  0  0  0  0  0  0  0  0
    3.2944    0.9204    2.3318 C   0  0  2  0  0  0  0  0  0  0  0  0
    3.5515    1.9625    2.1076 H   0  0  0  0  0  0  0  0  0  0  0  0
    2.0211    0.6769    3.1988 C   0  0  0  0  0  0  0  0  0  0  0  0
    1.5277   -0.1380    1.9987 C   0  0  0  0  0  0  0  0  0  0  0  0
    0.6026   -0.8749    1.7339 O   0  0  0  0  0  0  0  0  0  0  0  0
    2.6328    0.2177    1.2393 N   0  0  0  0  0  0  0  0  0  0  0  0
    3.4392   -0.5876    0.3385 C   0  0  2  0  0  0  0  0  0  0  0  0
    2.4842   -1.5244   -0.2801 N   0  0  0  0  0  0  0  0  0  0  0  0
    2.7029   -2.4329   -1.2394 C   0  0  0  0  0  0  0  0  0  0  0  0
    3.7617   -2.5645   -1.8675 O   0  0  0  0  0  0  0  0  0  0  0  0
    1.5200   -3.3732   -1.5431 C   0  0  1  0  0  0  0  0  0  0  0  0
    1.7392   -3.8759   -2.8914 N   0  0  0  0  0  0  0  0  0  0  0  0
    0.7458   -4.3545   -3.6522 C   0  0  0  0  0  0  0  0  0  0  0  0
   -0.4238   -4.4175   -3.2939 O   0  0  0  0  0  0  0  0  0  0  0  0
    1.1532   -4.8172   -5.0910 C   0  0  0  0  0  0  0  0  0  0  0  0
    0.9186   -6.2028   -5.2758 N   0  0  0  0  0  0  0  0  0  0  0  0
   -0.2392   -6.7529   -5.6329 C   0  0  0  0  0  0  0  0  0  0  0  0
   -1.3570   -6.2893   -5.0964 N   0  0  0  0  0  0  0  0  0  0  0  0
   -0.3131   -7.9511   -6.5203 C   0  0  0  0  0  0  0  0  0  0  0  0
    0.6845   -8.9289   -6.4409 C   0  0  0  0  0  0  0  0  0  0  0  0
    0.5416  -10.1079   -7.2838 C   0  0  0  0  0  0  0  0  0  0  0  0
    1.5323  -11.1285   -7.2596 C   0  0  0  0  0  0  0  0  0  0  0  0
    2.3559  -11.9541   -7.2167 N   0  0  0  0  0  0  0  0  0  0  0  0
   -0.5725  -10.2287   -8.1118 C   0  0  0  0  0  0  0  0  0  0  0  0
   -1.5764   -9.2366   -8.1801 C   0  0  0  0  0  0  0  0  0  0  0  0
   -2.6944   -9.3816   -9.0349 C   0  0  0  0  0  0  0  0  0  0  0  0
   -3.6280   -9.4775   -9.7334 N   0  0  0  0  0  0  0  0  0  0  0  0
   -1.4210   -8.0496   -7.3589 C   0  0  0  0  0  0  0  0  0  0  0  0
    1.4191   -4.4702   -0.4841 C   0  0  0  0  0  0  0  0  0  0  0  0
    2.3496   -5.5203   -0.4565 C   0  0  0  0  0  0  0  0  0  0  0  0
    2.2676   -6.5065    0.5290 C   0  0  0  0  0  0  0  0  0  0  0  0
    1.2615   -6.4468    1.4994 C   0  0  0  0  0  0  0  0  0  0  0  0
    0.3365   -5.3996    1.4786 C   0  0  0  0  0  0  0  0  0  0  0  0
    0.4128   -4.4151    0.4888 C   0  0  0  0  0  0  0  0  0  0  0  0
    4.1183    0.4024   -0.6813 C   0  0  0  0  0  0  0  0  0  0  0  0
    4.1955    1.5702   -0.4118 O   0  0  0  0  0  0  0  0  0  0  0  0
    4.6188   -0.1114   -1.7927 O   0  0  0  0  0  0  0  0  0  0  0  0
    4.6436   -2.9220    2.7045 H   0  0  0  0  0  0  0  0  0  0  0  0
    3.8742   -3.3841    1.1711 H   0  0  0  0  0  0  0  0  0  0  0  0
    2.9761   -2.4233    2.3739 H   0  0  0  0  0  0  0  0  0  0  0  0
    6.5727   -2.0078    1.3577 H   0  0  0  0  0  0  0  0  0  0  0  0
    6.3436   -0.6814    0.2022 H   0  0  0  0  0  0  0  0  0  0  0  0
    5.7589   -2.3287   -0.1869 H   0  0  0  0  0  0  0  0  0  0  0  0
    1.4251    1.5685    3.4434 H   0  0  0  0  0  0  0  0  0  0  0  0
    2.1792    0.0657    4.0980 H   0  0  0  0  0  0  0  0  0  0  0  0
    1.5689   -1.5357    0.1880 H   0  0  0  0  0  0  0  0  0  0  0  0
    0.5835   -2.7947   -1.5336 H   0  0  0  0  0  0  0  0  0  0  0  0
    2.6952   -3.8039   -3.2342 H   0  0  0  0  0  0  0  0  0  0  0  0
    2.2305   -4.6323   -5.2252 H   0  0  0  0  0  0  0  0  0  0  0  0
    0.5887   -4.1738   -5.7919 H   0  0  0  0  0  0  0  0  0  0  0  0
   -1.3245   -5.4981   -4.4290 H   0  0  0  0  0  0  0  0  0  0  0  0
   -2.1967   -6.8531   -5.1935 H   0  0  0  0  0  0  0  0  0  0  0  0
    1.5150   -8.8518   -5.7452 H   0  0  0  0  0  0  0  0  0  0  0  0
   -0.6717  -11.1180   -8.7386 H   0  0  0  0  0  0  0  0  0  0  0  0
   -2.1279   -7.2288   -7.4816 H   0  0  0  0  0  0  0  0  0  0  0  0
    3.1364   -5.5753   -1.2130 H   0  0  0  0  0  0  0  0  0  0  0  0
    2.9909   -7.3253    0.5381 H   0  0  0  0  0  0  0  0  0  0  0  0
    1.1969   -7.2202    2.2685 H   0  0  0  0  0  0  0  0  0  0  0  0
   -0.4551   -5.3504    2.2300 H   0  0  0  0  0  0  0  0  0  0  0  0
   -0.3175   -3.6016    0.4779 H   0  0  0  0  0  0  0  0  0  0  0  0
    4.4585   -1.0881   -1.8714 H   0  0  0  0  0  0  0  0  0  0  0  0
  2  1  1  1
  1 42  1  0
  1 43  1  0
  1 44  1  0
  2  3  1  0
  2  4  1  0
  2 11  1  0
  3 45  1  0
  3 46  1  0
  3 47  1  0
  4  5  1  0
  5  6  1  6
  5  7  1  0
  5 10  1  0
  7  8  1  0
  7 48  1  0
  7 49  1  0
  8  9  2  0
  8 10  1  0
 10 11  1  0
 11 12  1  0
 11 39  1  6
 12 13  1  0
 12 50  1  0
 13 14  2  0
 13 15  1  0
 15 16  1  0
 15 33  1  0
 15 51  1  6
 16 17  1  0
 16 52  1  0
 17 18  2  0
 17 19  1  0
 19 20  1  0
 19 53  1  0
 19 54  1  0
 20 21  2  0
 21 22  1  0
 21 23  1  0
 22 55  1  0
 22 56  1  0
 23 24  2  0
 23 32  1  0
 24 25  1  0
 24 57  1  0
 25 26  1  0
 25 28  2  0
 26 27  3  0
 28 29  1  0
 28 58  1  0
 29 30  1  0
 29 32  2  0
 30 31  3  0
 32 59  1  0
 33 34  2  0
 33 38  1  0
 34 35  1  0
 34 60  1  0
 35 36  2  0
 35 61  1  0
 36 37  1  0
 36 62  1  0
 37 38  2  0
 37 63  1  0
 38 64  1  0
 39 40  2  0
 39 41  1  0
 41 65  1  0
M  END

