
     RDKit          3D

 29 29  0  0  0  0  0  0  0  0999 V2000
    4.1593   -1.3043   -2.1857 C   0  0  0  0  0  0  0  0  0  0  0  0
    4.1968   -0.5325   -1.0209 C   0  0  0  0  0  0  0  0  0  0  0  0
    4.5562   -0.9957    0.2504 C   0  0  0  0  0  0  0  0  0  0  0  0
    4.9509   -2.2394    0.4546 O   0  0  0  0  0  0  0  0  0  0  0  0
    4.5069   -0.2085    1.3738 N   0  0  0  0  0  0  0  0  0  0  0  0
    5.2351   -0.4718    2.6187 C   0  0  1  0  0  0  0  0  0  0  0  0
    4.8031   -1.7947    3.2501 C   0  0  0  0  0  0  0  0  0  0  0  0
    6.7758   -0.3850    2.4437 C   0  0  0  0  0  0  0  0  0  0  0  0
    7.2630    0.9691    1.9807 C   0  0  0  0  0  0  0  0  0  0  0  0
    7.5571    1.9814    2.9093 C   0  0  0  0  0  0  0  0  0  0  0  0
    7.9711    3.2509    2.4993 C   0  0  0  0  0  0  0  0  0  0  0  0
    8.0948    3.5195    1.1334 C   0  0  0  0  0  0  0  0  0  0  0  0
    8.6626    5.2474    0.5593 Br  0  0  0  0  0  0  0  0  0  0  0  0
    7.8121    2.5329    0.1858 C   0  0  0  0  0  0  0  0  0  0  0  0
    7.3995    1.2682    0.6152 C   0  0  0  0  0  0  0  0  0  0  0  0
    3.8585   -0.8530   -3.1311 H   0  0  0  0  0  0  0  0  0  0  0  0
    4.4223   -2.3615   -2.1957 H   0  0  0  0  0  0  0  0  0  0  0  0
    3.9083    0.5223   -1.0523 H   0  0  0  0  0  0  0  0  0  0  0  0
    4.3430    0.7682    1.1563 H   0  0  0  0  0  0  0  0  0  0  0  0
    4.9297    0.3455    3.2934 H   0  0  0  0  0  0  0  0  0  0  0  0
    5.0810   -2.6502    2.6109 H   0  0  0  0  0  0  0  0  0  0  0  0
    3.7127   -1.8214    3.3917 H   0  0  0  0  0  0  0  0  0  0  0  0
    5.2917   -1.9325    4.2271 H   0  0  0  0  0  0  0  0  0  0  0  0
    7.0819   -1.1682    1.7313 H   0  0  0  0  0  0  0  0  0  0  0  0
    7.2386   -0.6329    3.4127 H   0  0  0  0  0  0  0  0  0  0  0  0
    7.4704    1.7748    3.9803 H   0  0  0  0  0  0  0  0  0  0  0  0
    8.2009    4.0239    3.2345 H   0  0  0  0  0  0  0  0  0  0  0  0
    7.9163    2.7471   -0.8793 H   0  0  0  0  0  0  0  0  0  0  0  0
    7.1848    0.5011   -0.1338 H   0  0  0  0  0  0  0  0  0  0  0  0
  1  2  2  0
  1 16  1  0
  1 17  1  0
  2  3  1  0
  2 18  1  0
  3  4  2  0
  3  5  1  0
  5  6  1  0
  5 19  1  0
  6  7  1  0
  6  8  1  0
  6 20  1  1
  7 21  1  0
  7 22  1  0
  7 23  1  0
  8  9  1  0
  8 24  1  0
  8 25  1  0
  9 10  2  0
  9 15  1  0
 10 11  1  0
 10 26  1  0
 11 12  2  0
 11 27  1  0
 12 13  1  0
 12 14  1  0
 14 15  2  0
 14 28  1  0
 15 29  1  0
M  END

