
     RDKit          3D

 59 61  0  0  0  0  0  0  0  0999 V2000
    1.0817   -2.1517   -1.9675 C   0  0  0  0  0  0  0  0  0  0  0  0
    2.3267   -1.5974   -2.6135 C   0  0  0  0  0  0  0  0  0  0  0  0
    2.2751   -0.5486   -3.5123 C   0  0  0  0  0  0  0  0  0  0  0  0
    3.4564   -0.0012   -4.1167 C   0  0  0  0  0  0  0  0  0  0  0  0
    3.4261    1.0773   -5.0605 C   0  0  0  0  0  0  0  0  0  0  0  0
    2.2179    1.7188   -5.5038 C   0  0  0  0  0  0  0  0  0  0  0  0
    2.1920    2.7129   -6.3631 N   0  0  0  0  0  0  0  0  0  0  0  0
    3.3757    3.1460   -6.8422 C   0  0  0  0  0  0  0  0  0  0  0  0
    3.3288    4.2453   -7.8687 C   0  0  1  0  0  0  0  0  0  0  0  0
    2.3722    5.1525   -7.5959 F   0  0  0  0  0  0  0  0  0  0  0  0
    4.4948    4.9046   -7.9604 F   0  0  0  0  0  0  0  0  0  0  0  0
    3.0554    3.7733   -9.1135 F   0  0  0  0  0  0  0  0  0  0  0  0
    4.5779    2.6238   -6.5383 N   0  0  0  0  0  0  0  0  0  0  0  0
    4.6022    1.6292   -5.6775 C   0  0  0  0  0  0  0  0  0  0  0  0
    4.6724   -0.6347   -3.6904 C   0  0  0  0  0  0  0  0  0  0  0  0
    4.6283   -1.6746   -2.7889 C   0  0  0  0  0  0  0  0  0  0  0  0
    5.9133   -2.3612   -2.3039 C   0  0  0  0  0  0  0  0  0  0  0  0
    5.4731   -3.4725   -1.4579 N   0  0  0  0  0  0  0  0  0  0  0  0
    6.2136   -4.3678   -0.8880 C   0  0  0  0  0  0  0  0  0  0  0  0
    7.4311   -4.5163   -0.9120 O   0  0  0  0  0  0  0  0  0  0  0  0
    5.4601   -5.5071    0.0144 C   0  0  1  0  0  0  0  0  0  0  0  0
    5.7156   -5.1897    1.5158 C   0  0  1  0  0  0  0  0  0  0  0  0
    6.1118   -3.8692    1.6382 F   0  0  0  0  0  0  0  0  0  0  0  0
    4.3453   -5.3665    2.1685 C   0  0  0  0  0  0  0  0  0  0  0  0
    3.3656   -4.9821    1.0555 C   0  0  0  0  0  0  0  0  0  0  0  0
    4.0600   -5.4791   -0.1397 N   0  0  0  0  0  0  0  0  0  0  0  0
    3.3530   -6.0555   -1.2269 C   0  0  0  0  0  0  0  0  0  0  0  0
    2.1542   -6.1620   -1.1967 O   0  0  0  0  0  0  0  0  0  0  0  0
    4.2032   -6.4261   -2.1664 O   0  0  0  0  0  0  0  0  0  0  0  0
    3.7527   -7.0169   -3.4673 C   0  0  1  0  0  0  0  0  0  0  0  0
    2.8371   -6.0213   -4.1780 C   0  0  0  0  0  0  0  0  0  0  0  0
    5.0689   -7.1989   -4.2184 C   0  0  0  0  0  0  0  0  0  0  0  0
    3.0738   -8.3578   -3.1920 C   0  0  0  0  0  0  0  0  0  0  0  0
    3.5016   -2.1792   -2.2475 N   0  0  0  0  0  0  0  0  0  0  0  0
    0.1701   -1.7060   -2.3895 H   0  0  0  0  0  0  0  0  0  0  0  0
    1.0861   -1.9514   -0.8819 H   0  0  0  0  0  0  0  0  0  0  0  0
    1.0263   -3.2451   -2.0920 H   0  0  0  0  0  0  0  0  0  0  0  0
    1.2969   -0.1347   -3.7569 H   0  0  0  0  0  0  0  0  0  0  0  0
    1.2440    1.3847   -5.1285 H   0  0  0  0  0  0  0  0  0  0  0  0
    5.5928    1.2220   -5.4459 H   0  0  0  0  0  0  0  0  0  0  0  0
    5.6386   -0.3026   -4.0720 H   0  0  0  0  0  0  0  0  0  0  0  0
    6.5414   -1.6714   -1.7192 H   0  0  0  0  0  0  0  0  0  0  0  0
    6.5167   -2.7383   -3.1432 H   0  0  0  0  0  0  0  0  0  0  0  0
    4.4203   -3.4035   -1.3914 H   0  0  0  0  0  0  0  0  0  0  0  0
    5.9076   -6.4378   -0.3543 H   0  0  0  0  0  0  0  0  0  0  0  0
    6.5112   -5.8198    1.9391 H   0  0  0  0  0  0  0  0  0  0  0  0
    4.2641   -4.7454    3.0702 H   0  0  0  0  0  0  0  0  0  0  0  0
    4.2009   -6.4202    2.4546 H   0  0  0  0  0  0  0  0  0  0  0  0
    3.2163   -3.8920    0.9822 H   0  0  0  0  0  0  0  0  0  0  0  0
    2.3786   -5.4559    1.1152 H   0  0  0  0  0  0  0  0  0  0  0  0
    3.3126   -5.0315   -4.2435 H   0  0  0  0  0  0  0  0  0  0  0  0
    1.8726   -5.9160   -3.6652 H   0  0  0  0  0  0  0  0  0  0  0  0
    2.6467   -6.3779   -5.2013 H   0  0  0  0  0  0  0  0  0  0  0  0
    5.5691   -6.2316   -4.3745 H   0  0  0  0  0  0  0  0  0  0  0  0
    4.8743   -7.6474   -5.2034 H   0  0  0  0  0  0  0  0  0  0  0  0
    5.7502   -7.8633   -3.6657 H   0  0  0  0  0  0  0  0  0  0  0  0
    2.1484   -8.2292   -2.6154 H   0  0  0  0  0  0  0  0  0  0  0  0
    3.7493   -9.0349   -2.6463 H   0  0  0  0  0  0  0  0  0  0  0  0
    2.8190   -8.8353   -4.1501 H   0  0  0  0  0  0  0  0  0  0  0  0
  1  2  1  0
  1 35  1  0
  1 36  1  0
  1 37  1  0
  2  3  2  0
  2 34  1  0
  3  4  1  0
  3 38  1  0
  4  5  1  0
  4 15  2  0
  5  6  2  0
  5 14  1  0
  6  7  1  0
  6 39  1  0
  7  8  2  0
  8  9  1  0
  8 13  1  0
  9 10  1  6
  9 11  1  0
  9 12  1  0
 13 14  2  0
 14 40  1  0
 15 16  1  0
 15 41  1  0
 16 17  1  0
 16 34  2  0
 17 18  1  0
 17 42  1  0
 17 43  1  0
 18 19  1  0
 18 44  1  0
 19 20  2  0
 19 21  1  0
 21 22  1  0
 21 26  1  0
 21 45  1  6
 22 23  1  0
 22 24  1  0
 22 46  1  1
 24 25  1  0
 24 47  1  0
 24 48  1  0
 25 26  1  0
 25 49  1  0
 25 50  1  0
 26 27  1  0
 27 28  2  0
 27 29  1  0
 30 29  1  1
 30 31  1  0
 30 32  1  0
 30 33  1  0
 31 51  1  0
 31 52  1  0
 31 53  1  0
 32 54  1  0
 32 55  1  0
 32 56  1  0
 33 57  1  0
 33 58  1  0
 33 59  1  0
M  END

