
     RDKit          3D

 43 45  0  0  0  0  0  0  0  0999 V2000
    1.9520   -0.0053    1.2405 C   0  0  0  0  0  0  0  0  0  0  0  0
    3.2136   -0.2593    0.5428 N   0  0  0  0  0  0  0  0  0  0  0  0
    3.2486   -0.9942   -0.6326 C   0  0  0  0  0  0  0  0  0  0  0  0
    2.8284   -2.3575   -0.8194 C   0  0  0  0  0  0  0  0  0  0  0  0
    2.4382   -3.3499    0.1977 C   0  0  0  0  0  0  0  0  0  0  0  0
    1.6718   -4.4868   -0.1321 C   0  0  0  0  0  0  0  0  0  0  0  0
    1.3293   -5.4325    0.8304 C   0  0  0  0  0  0  0  0  0  0  0  0
    1.7326   -5.2737    2.1603 C   0  0  0  0  0  0  0  0  0  0  0  0
    2.4959   -4.1556    2.5019 C   0  0  0  0  0  0  0  0  0  0  0  0
    2.9249   -3.9188    3.9298 C   0  0  1  0  0  0  0  0  0  0  0  0
    2.7161   -5.0131    4.7112 F   0  0  0  0  0  0  0  0  0  0  0  0
    4.2472   -3.5960    4.0046 F   0  0  0  0  0  0  0  0  0  0  0  0
    2.2282   -2.8803    4.4806 F   0  0  0  0  0  0  0  0  0  0  0  0
    2.8534   -3.2095    1.5362 C   0  0  0  0  0  0  0  0  0  0  0  0
    2.9337   -2.6807   -2.1642 C   0  0  0  0  0  0  0  0  0  0  0  0
    2.6995   -3.7383   -2.8166 O   0  0  0  0  0  0  0  0  0  0  0  0
    3.4696   -1.4680   -3.0068 C   0  0  1  0  0  0  0  0  0  0  0  0
    2.4458   -1.0292   -4.0696 C   0  0  1  0  0  0  0  0  0  0  0  0
    1.0883   -0.5019   -3.5748 C   0  0  0  0  0  0  0  0  0  0  0  0
    0.4834    0.0997   -4.8506 C   0  0  0  0  0  0  0  0  0  0  0  0
    1.6756    0.7981   -5.5488 C   0  0  0  0  0  0  0  0  0  0  0  0
    2.9546    0.0974   -5.0057 C   0  0  0  0  0  0  0  0  0  0  0  0
    3.8269   -0.4436   -1.9034 C   0  0  0  0  0  0  0  0  0  0  0  0
    2.1518    0.6137    2.1285 H   0  0  0  0  0  0  0  0  0  0  0  0
    1.5047   -0.9465    1.5899 H   0  0  0  0  0  0  0  0  0  0  0  0
    1.2040    0.5117    0.6062 H   0  0  0  0  0  0  0  0  0  0  0  0
    3.7789    0.5822    0.4824 H   0  0  0  0  0  0  0  0  0  0  0  0
    1.3372   -4.6293   -1.1628 H   0  0  0  0  0  0  0  0  0  0  0  0
    0.7372   -6.3051    0.5436 H   0  0  0  0  0  0  0  0  0  0  0  0
    1.4643   -6.0103    2.9189 H   0  0  0  0  0  0  0  0  0  0  0  0
    3.4691   -2.3541    1.8167 H   0  0  0  0  0  0  0  0  0  0  0  0
    4.3669   -1.8297   -3.5341 H   0  0  0  0  0  0  0  0  0  0  0  0
    2.2402   -1.9155   -4.6939 H   0  0  0  0  0  0  0  0  0  0  0  0
    1.2369    0.2887   -2.8182 H   0  0  0  0  0  0  0  0  0  0  0  0
    0.4623   -1.2819   -3.1149 H   0  0  0  0  0  0  0  0  0  0  0  0
   -0.3597    0.7798   -4.6540 H   0  0  0  0  0  0  0  0  0  0  0  0
    0.0982   -0.7148   -5.4871 H   0  0  0  0  0  0  0  0  0  0  0  0
    1.6943    1.8713   -5.3011 H   0  0  0  0  0  0  0  0  0  0  0  0
    1.6010    0.7331   -6.6451 H   0  0  0  0  0  0  0  0  0  0  0  0
    3.5726    0.8147   -4.4416 H   0  0  0  0  0  0  0  0  0  0  0  0
    3.5948   -0.3058   -5.8058 H   0  0  0  0  0  0  0  0  0  0  0  0
    3.4249    0.5568   -2.1462 H   0  0  0  0  0  0  0  0  0  0  0  0
    4.9290   -0.3216   -1.8407 H   0  0  0  0  0  0  0  0  0  0  0  0
  1  2  1  0
  1 24  1  0
  1 25  1  0
  1 26  1  0
  2  3  1  0
  2 27  1  0
  3  4  2  0
  3 23  1  0
  4  5  1  0
  4 15  1  0
  5  6  2  0
  5 14  1  0
  6  7  1  0
  6 28  1  0
  7  8  2  0
  7 29  1  0
  8  9  1  0
  8 30  1  0
  9 10  1  0
  9 14  2  0
 10 11  1  1
 10 12  1  0
 10 13  1  0
 14 31  1  0
 15 16  2  0
 15 17  1  0
 17 18  1  0
 17 23  1  0
 17 32  1  6
 18 19  1  0
 18 22  1  0
 18 33  1  6
 19 20  1  0
 19 34  1  0
 19 35  1  0
 20 21  1  0
 20 36  1  0
 20 37  1  0
 21 22  1  0
 21 38  1  0
 21 39  1  0
 22 40  1  0
 22 41  1  0
 23 42  1  0
 23 43  1  0
M  END

