
     RDKit          3D

 45 47  0  0  0  0  0  0  0  0999 V2000
    1.0603    0.1663    0.4192 O   0  0  0  0  0  0  0  0  0  0  0  0
    2.2520    0.0077    0.2311 C   0  0  0  0  0  0  0  0  0  0  0  0
    3.2263    1.0792    0.0973 C   0  0  0  0  0  0  0  0  0  0  0  0
    4.5372    0.8012   -0.0839 C   0  0  0  0  0  0  0  0  0  0  0  0
    5.0111   -0.4853   -0.1557 N   0  0  0  0  0  0  0  0  0  0  0  0
    6.4562   -0.7887   -0.3686 C   0  0  1  0  0  0  0  0  0  0  0  0
    7.1528    0.4060   -0.6080 O   0  0  0  0  0  0  0  0  0  0  0  0
    7.9577    0.7951    0.5109 C   0  0  2  0  0  0  0  0  0  0  0  0
    7.6661    1.8217    0.8040 H   0  0  0  0  0  0  0  0  0  0  0  0
    9.4291    0.8075    0.0846 C   0  0  0  0  0  0  0  0  0  0  0  0
   10.2583    1.2444    1.1586 O   0  0  0  0  0  0  0  0  0  0  0  0
    7.6369   -0.2159    1.6457 C   0  0  2  0  0  0  0  0  0  0  0  0
    6.8305    0.1824    2.2880 H   0  0  0  0  0  0  0  0  0  0  0  0
    8.7389   -0.6097    2.4293 O   0  0  0  0  0  0  0  0  0  0  0  0
    7.1124   -1.4374    0.8576 C   0  0  2  0  0  0  0  0  0  0  0  0
    6.3912   -2.0378    1.4359 H   0  0  0  0  0  0  0  0  0  0  0  0
    8.1959   -2.2147    0.4181 O   0  0  0  0  0  0  0  0  0  0  0  0
    4.1478   -1.5853   -0.1140 C   0  0  0  0  0  0  0  0  0  0  0  0
    4.5676   -2.7210   -0.2554 O   0  0  0  0  0  0  0  0  0  0  0  0
    2.8082   -1.2999    0.1143 N   0  0  0  0  0  0  0  0  0  0  0  0
    1.9046   -2.4466    0.2696 C   0  0  0  0  0  0  0  0  0  0  0  0
    2.0958   -3.2114    1.5989 C   0  0  0  0  0  0  0  0  0  0  0  0
    2.1503   -2.3175    2.8182 C   0  0  0  0  0  0  0  0  0  0  0  0
    0.9863   -1.7997    3.4078 C   0  0  0  0  0  0  0  0  0  0  0  0
    1.0660   -0.9290    4.4963 C   0  0  0  0  0  0  0  0  0  0  0  0
    2.3061   -0.5435    5.0148 C   0  0  0  0  0  0  0  0  0  0  0  0
    3.4628   -1.0572    4.4266 C   0  0  0  0  0  0  0  0  0  0  0  0
    5.0371   -0.5784    5.0389 Cl  0  0  0  0  0  0  0  0  0  0  0  0
    3.3939   -1.9433    3.3493 C   0  0  0  0  0  0  0  0  0  0  0  0
    2.8603    2.1030    0.1508 H   0  0  0  0  0  0  0  0  0  0  0  0
    5.2940    1.5751   -0.2044 H   0  0  0  0  0  0  0  0  0  0  0  0
    6.5347   -1.4559   -1.2377 H   0  0  0  0  0  0  0  0  0  0  0  0
    9.5487    1.4400   -0.8120 H   0  0  0  0  0  0  0  0  0  0  0  0
    9.7412   -0.2127   -0.1745 H   0  0  0  0  0  0  0  0  0  0  0  0
   10.1579    2.1997    1.2707 H   0  0  0  0  0  0  0  0  0  0  0  0
    9.4397    0.0642    2.3451 H   0  0  0  0  0  0  0  0  0  0  0  0
    8.8333   -2.1886    1.1538 H   0  0  0  0  0  0  0  0  0  0  0  0
    2.0721   -3.1377   -0.5688 H   0  0  0  0  0  0  0  0  0  0  0  0
    0.8923   -2.0320    0.2004 H   0  0  0  0  0  0  0  0  0  0  0  0
    3.0194   -3.8040    1.5330 H   0  0  0  0  0  0  0  0  0  0  0  0
    1.2585   -3.9237    1.6854 H   0  0  0  0  0  0  0  0  0  0  0  0
    0.0081   -2.0739    3.0049 H   0  0  0  0  0  0  0  0  0  0  0  0
    0.1514   -0.5350    4.9465 H   0  0  0  0  0  0  0  0  0  0  0  0
    2.3788    0.1438    5.8591 H   0  0  0  0  0  0  0  0  0  0  0  0
    4.3151   -2.3460    2.9240 H   0  0  0  0  0  0  0  0  0  0  0  0
  1  2  2  0
  2  3  1  0
  2 20  1  0
  3  4  2  0
  3 30  1  0
  4  5  1  0
  4 31  1  0
  5  6  1  0
  5 18  1  0
  6  7  1  0
  6 15  1  0
  6 32  1  6
  7  8  1  0
  8  9  1  1
  8 10  1  0
  8 12  1  0
 10 11  1  0
 10 33  1  0
 10 34  1  0
 11 35  1  0
 12 13  1  1
 12 14  1  0
 12 15  1  0
 14 36  1  0
 15 16  1  1
 15 17  1  0
 17 37  1  0
 18 19  2  0
 18 20  1  0
 20 21  1  0
 21 22  1  0
 21 38  1  0
 21 39  1  0
 22 23  1  0
 22 40  1  0
 22 41  1  0
 23 24  2  0
 23 29  1  0
 24 25  1  0
 24 42  1  0
 25 26  2  0
 25 43  1  0
 26 27  1  0
 26 44  1  0
 27 28  1  0
 27 29  2  0
 29 45  1  0
M  END

