
     RDKit          3D

 52 55  0  0  0  0  0  0  0  0999 V2000
    3.4548    0.6486   -1.6891 C   0  0  0  0  0  0  0  0  0  0  0  0
    3.3388   -0.0927   -0.4885 O   0  0  0  0  0  0  0  0  0  0  0  0
    3.7913   -1.3572   -0.4332 C   0  0  0  0  0  0  0  0  0  0  0  0
    3.6453   -2.0086    0.8116 C   0  0  0  0  0  0  0  0  0  0  0  0
    4.0819   -3.3125    0.9769 C   0  0  0  0  0  0  0  0  0  0  0  0
    4.6605   -3.9859   -0.1124 C   0  0  0  0  0  0  0  0  0  0  0  0
    5.2609   -5.6419    0.1053 S   0  0  1  0  0  0  0  0  0  0  0  0
    5.9344   -6.0546   -1.1338 O   0  0  0  0  0  0  0  0  0  0  0  0
    5.9187   -5.7636    1.4048 O   0  0  0  0  0  0  0  0  0  0  0  0
    3.8018   -6.5757    0.2494 N   0  0  0  0  0  0  0  0  0  0  0  0
    3.1952   -7.0013   -0.9887 C   0  0  0  0  0  0  0  0  0  0  0  0
    3.7960   -8.3893   -1.4591 C   0  0  0  0  0  0  0  0  0  0  0  0
    3.6678   -9.3054   -0.3728 N   0  0  0  0  0  0  0  0  0  0  0  0
    2.5087  -10.2613   -0.3659 C   0  0  0  0  0  0  0  0  0  0  0  0
    2.1456  -10.8702    0.9306 C   0  0  0  0  0  0  0  0  0  0  0  0
    1.4994  -10.1254    1.8580 N   0  0  0  0  0  0  0  0  0  0  0  0
    1.5391  -10.6900    3.0780 C   0  0  0  0  0  0  0  0  0  0  0  0
    0.8111  -10.0550    4.1961 C   0  0  0  0  0  0  0  0  0  0  0  0
    1.0079  -10.4460    5.5357 C   0  0  0  0  0  0  0  0  0  0  0  0
    0.3130   -9.8364    6.5831 C   0  0  0  0  0  0  0  0  0  0  0  0
   -0.5977   -8.8167    6.3031 C   0  0  0  0  0  0  0  0  0  0  0  0
   -1.4764   -8.0436    7.6138 Cl  0  0  0  0  0  0  0  0  0  0  0  0
   -0.8180   -8.4073    4.9828 C   0  0  0  0  0  0  0  0  0  0  0  0
   -0.1193   -9.0262    3.9481 C   0  0  0  0  0  0  0  0  0  0  0  0
    2.3044  -11.8636    3.1886 C   0  0  0  0  0  0  0  0  0  0  0  0
    3.0209  -12.2886    1.6310 S   0  0  0  0  0  0  0  0  0  0  0  0
    4.3492   -8.9316    0.8237 C   0  0  0  0  0  0  0  0  0  0  0  0
    3.7420   -7.5561    1.3128 C   0  0  0  0  0  0  0  0  0  0  0  0
    4.8217   -3.3536   -1.3457 C   0  0  0  0  0  0  0  0  0  0  0  0
    4.3858   -2.0371   -1.5112 C   0  0  0  0  0  0  0  0  0  0  0  0
    3.0242    1.6369   -1.4840 H   0  0  0  0  0  0  0  0  0  0  0  0
    2.8943    0.1756   -2.5140 H   0  0  0  0  0  0  0  0  0  0  0  0
    4.5097    0.7704   -1.9900 H   0  0  0  0  0  0  0  0  0  0  0  0
    3.1906   -1.4546    1.6346 H   0  0  0  0  0  0  0  0  0  0  0  0
    3.9842   -3.8084    1.9443 H   0  0  0  0  0  0  0  0  0  0  0  0
    3.3569   -6.2604   -1.7822 H   0  0  0  0  0  0  0  0  0  0  0  0
    2.1125   -7.1246   -0.8334 H   0  0  0  0  0  0  0  0  0  0  0  0
    4.8498   -8.2110   -1.7205 H   0  0  0  0  0  0  0  0  0  0  0  0
    3.2414   -8.7523   -2.3350 H   0  0  0  0  0  0  0  0  0  0  0  0
    2.7672  -11.0081   -1.1366 H   0  0  0  0  0  0  0  0  0  0  0  0
    1.6513   -9.6853   -0.7602 H   0  0  0  0  0  0  0  0  0  0  0  0
    1.7286  -11.2315    5.7709 H   0  0  0  0  0  0  0  0  0  0  0  0
    0.4781  -10.1480    7.6162 H   0  0  0  0  0  0  0  0  0  0  0  0
   -1.5393   -7.6144    4.7753 H   0  0  0  0  0  0  0  0  0  0  0  0
   -0.2891   -8.7279    2.9123 H   0  0  0  0  0  0  0  0  0  0  0  0
    2.4475  -12.5075    4.0508 H   0  0  0  0  0  0  0  0  0  0  0  0
    5.4195   -8.7712    0.6186 H   0  0  0  0  0  0  0  0  0  0  0  0
    4.2137   -9.6950    1.5938 H   0  0  0  0  0  0  0  0  0  0  0  0
    4.3109   -7.2093    2.1823 H   0  0  0  0  0  0  0  0  0  0  0  0
    2.6967   -7.7467    1.5938 H   0  0  0  0  0  0  0  0  0  0  0  0
    5.2990   -3.8877   -2.1689 H   0  0  0  0  0  0  0  0  0  0  0  0
    4.5204   -1.5512   -2.4771 H   0  0  0  0  0  0  0  0  0  0  0  0
  1  2  1  0
  1 31  1  0
  1 32  1  0
  1 33  1  0
  2  3  1  0
  3  4  2  0
  3 30  1  0
  4  5  1  0
  4 34  1  0
  5  6  2  0
  5 35  1  0
  7  6  1  6
  6 29  1  0
  7  8  2  0
  7  9  2  0
  7 10  1  0
 10 11  1  0
 10 28  1  0
 11 12  1  0
 11 36  1  0
 11 37  1  0
 12 13  1  0
 12 38  1  0
 12 39  1  0
 13 14  1  0
 13 27  1  0
 14 15  1  0
 14 40  1  0
 14 41  1  0
 15 16  2  0
 15 26  1  0
 16 17  1  0
 17 18  1  0
 17 25  2  0
 18 19  2  0
 18 24  1  0
 19 20  1  0
 19 42  1  0
 20 21  2  0
 20 43  1  0
 21 22  1  0
 21 23  1  0
 23 24  2  0
 23 44  1  0
 24 45  1  0
 25 26  1  0
 25 46  1  0
 27 28  1  0
 27 47  1  0
 27 48  1  0
 28 49  1  0
 28 50  1  0
 29 30  2  0
 29 51  1  0
 30 52  1  0
M  END

