
     RDKit          3D

 26 26  0  0  0  0  0  0  0  0999 V2000
    1.4266   -0.7286   -0.9765 C   0  0  0  0  0  0  0  0  0  0  0  0
    2.7878   -0.4027   -0.4212 C   0  0  0  0  0  0  0  0  0  0  0  0
    3.4879    0.6804   -0.9284 C   0  0  0  0  0  0  0  0  0  0  0  0
    4.7450    1.0590   -0.4270 C   0  0  0  0  0  0  0  0  0  0  0  0
    5.3773    2.1188   -0.9742 F   0  0  0  0  0  0  0  0  0  0  0  0
    5.3423    0.3646    0.6342 C   0  0  0  0  0  0  0  0  0  0  0  0
    4.6887   -0.7180    1.1846 C   0  0  0  0  0  0  0  0  0  0  0  0
    3.3960   -1.1329    0.6844 C   0  0  0  0  0  0  0  0  0  0  0  0
    2.8131   -2.5817    1.3163 S   0  0  1  0  0  0  0  0  0  0  0  0
    3.3335   -2.8591    2.6611 O   0  0  0  0  0  0  0  0  0  0  0  0
    1.4075   -2.8940    0.9521 O   0  0  0  0  0  0  0  0  0  0  0  0
    3.6732   -4.1257    0.4970 N   0  0  0  0  0  0  0  0  0  0  0  0
    2.8215   -4.5865   -0.5275 N   0  0  0  0  0  0  0  0  0  0  0  0
    3.3333   -5.1826   -1.5781 C   0  0  0  0  0  0  0  0  0  0  0  0
    4.6417   -5.4138   -1.6128 N   0  0  0  0  0  0  0  0  0  0  0  0
    2.3427   -5.6989   -2.9382 S   0  0  0  0  0  0  0  0  0  0  0  0
    1.1507   -0.0024   -1.7546 H   0  0  0  0  0  0  0  0  0  0  0  0
    0.6551   -0.7194   -0.1914 H   0  0  0  0  0  0  0  0  0  0  0  0
    1.3881   -1.7359   -1.4201 H   0  0  0  0  0  0  0  0  0  0  0  0
    3.0547    1.2766   -1.7349 H   0  0  0  0  0  0  0  0  0  0  0  0
    6.3093    0.6953    1.0188 H   0  0  0  0  0  0  0  0  0  0  0  0
    5.1233   -1.2589    2.0240 H   0  0  0  0  0  0  0  0  0  0  0  0
    3.6349   -4.8233    1.2494 H   0  0  0  0  0  0  0  0  0  0  0  0
    1.8318   -4.3226   -0.4398 H   0  0  0  0  0  0  0  0  0  0  0  0
    5.1692   -4.9841   -0.8513 H   0  0  0  0  0  0  0  0  0  0  0  0
    5.1019   -5.7287   -2.4568 H   0  0  0  0  0  0  0  0  0  0  0  0
  1  2  1  0
  1 17  1  0
  1 18  1  0
  1 19  1  0
  2  3  2  0
  2  8  1  0
  3  4  1  0
  3 20  1  0
  4  5  1  0
  4  6  2  0
  6  7  1  0
  6 21  1  0
  7  8  2  0
  7 22  1  0
  8  9  1  0
  9 10  2  0
  9 11  2  0
  9 12  1  6
 12 13  1  0
 12 23  1  0
 13 14  1  0
 13 24  1  0
 14 15  1  0
 14 16  2  0
 15 25  1  0
 15 26  1  0
M  END

