
     RDKit          3D

 51 56  0  0  0  0  0  0  0  0999 V2000
    8.0671    2.0223    0.4863 O   0  0  0  0  0  0  0  0  0  0  0  0
    7.3835    2.4597   -0.4233 C   0  0  0  0  0  0  0  0  0  0  0  0
    7.0049    3.9015   -0.4792 C   0  0  0  0  0  0  0  0  0  0  0  0
    7.6090    4.7719    0.4484 C   0  0  0  0  0  0  0  0  0  0  0  0
    7.3210    6.1322    0.4447 C   0  0  0  0  0  0  0  0  0  0  0  0
    6.4074    6.6328   -0.4927 C   0  0  0  0  0  0  0  0  0  0  0  0
    6.0405    8.3377   -0.5066 Cl  0  0  0  0  0  0  0  0  0  0  0  0
    5.7841    5.7853   -1.4137 C   0  0  0  0  0  0  0  0  0  0  0  0
    6.0866    4.4231   -1.4085 C   0  0  0  0  0  0  0  0  0  0  0  0
    6.9114    1.5066   -1.5500 C   0  0  1  0  0  0  0  0  0  0  0  0
    7.0098    2.0032   -2.5241 H   0  0  0  0  0  0  0  0  0  0  0  0
    7.5919    0.1449   -1.5106 C   0  0  1  0  0  0  0  0  0  0  0  0
    7.3700   -0.3491   -2.4756 H   0  0  0  0  0  0  0  0  0  0  0  0
    9.0334   -0.2259   -1.2330 C   0  0  0  0  0  0  0  0  0  0  0  0
   10.0595    0.3110   -1.5453 O   0  0  0  0  0  0  0  0  0  0  0  0
    8.9352   -1.4995   -0.5996 N   0  0  0  0  0  0  0  0  0  0  0  0
   10.0548   -2.3636   -0.4277 C   0  0  0  0  0  0  0  0  0  0  0  0
   10.8094   -2.3152    0.7486 C   0  0  0  0  0  0  0  0  0  0  0  0
   11.9082   -3.1579    0.9214 C   0  0  0  0  0  0  0  0  0  0  0  0
   12.2586   -4.0572   -0.0893 C   0  0  0  0  0  0  0  0  0  0  0  0
   11.5170   -4.1153   -1.2713 C   0  0  0  0  0  0  0  0  0  0  0  0
   10.4191   -3.2686   -1.4390 C   0  0  0  0  0  0  0  0  0  0  0  0
    9.4983   -3.3371   -2.9207 Cl  0  0  0  0  0  0  0  0  0  0  0  0
    7.6146   -1.8734   -0.2491 C   0  0  0  0  0  0  0  0  0  0  0  0
    7.2980   -2.9579    0.1688 O   0  0  0  0  0  0  0  0  0  0  0  0
    6.8197   -0.5903   -0.4175 C   0  0  2  0  0  0  0  0  0  0  0  0
    7.0407   -0.0554    0.5218 H   0  0  0  0  0  0  0  0  0  0  0  0
    5.3459   -0.2890   -0.7400 C   0  0  2  0  0  0  0  0  0  0  0  0
    4.7913   -0.1536    0.2081 H   0  0  0  0  0  0  0  0  0  0  0  0
    4.5190   -1.1977   -1.6264 C   0  0  0  0  0  0  0  0  0  0  0  0
    4.5877   -2.5939   -1.5934 C   0  0  0  0  0  0  0  0  0  0  0  0
    3.6737   -3.3584   -2.3289 C   0  0  0  0  0  0  0  0  0  0  0  0
    2.6887   -2.7342   -3.1015 C   0  0  0  0  0  0  0  0  0  0  0  0
    2.6226   -1.3420   -3.1485 C   0  0  0  0  0  0  0  0  0  0  0  0
    3.5339   -0.5617   -2.4161 C   0  0  0  0  0  0  0  0  0  0  0  0
    3.5783    0.8897   -2.5643 C   0  0  0  0  0  0  0  0  0  0  0  0
    4.5712    1.6204   -2.1698 N   0  0  0  0  0  0  0  0  0  0  0  0
    5.5032    1.0688   -1.3751 N   0  0  0  0  0  0  0  0  0  0  0  0
    8.3148    4.3541    1.1688 H   0  0  0  0  0  0  0  0  0  0  0  0
    7.7945    6.8102    1.1566 H   0  0  0  0  0  0  0  0  0  0  0  0
    5.0650    6.1936   -2.1255 H   0  0  0  0  0  0  0  0  0  0  0  0
    5.5641    3.7623   -2.1037 H   0  0  0  0  0  0  0  0  0  0  0  0
   10.5211   -1.6032    1.5244 H   0  0  0  0  0  0  0  0  0  0  0  0
   12.4906   -3.1106    1.8441 H   0  0  0  0  0  0  0  0  0  0  0  0
   13.1174   -4.7207    0.0382 H   0  0  0  0  0  0  0  0  0  0  0  0
   11.7815   -4.8113   -2.0687 H   0  0  0  0  0  0  0  0  0  0  0  0
    5.3305   -3.0894   -0.9661 H   0  0  0  0  0  0  0  0  0  0  0  0
    3.7244   -4.4490   -2.2824 H   0  0  0  0  0  0  0  0  0  0  0  0
    1.9726   -3.3345   -3.6683 H   0  0  0  0  0  0  0  0  0  0  0  0
    1.8693   -0.8458   -3.7670 H   0  0  0  0  0  0  0  0  0  0  0  0
    2.8253    1.3931   -3.1790 H   0  0  0  0  0  0  0  0  0  0  0  0
  1  2  2  0
  2  3  1  0
  2 10  1  0
  3  4  2  0
  3  9  1  0
  4  5  1  0
  4 39  1  0
  5  6  2  0
  5 40  1  0
  6  7  1  0
  6  8  1  0
  8  9  2  0
  8 41  1  0
  9 42  1  0
 10 11  1  6
 10 12  1  0
 10 38  1  0
 12 13  1  6
 12 14  1  0
 12 26  1  0
 14 15  2  0
 14 16  1  0
 16 17  1  0
 16 24  1  0
 17 18  2  0
 17 22  1  0
 18 19  1  0
 18 43  1  0
 19 20  2  0
 19 44  1  0
 20 21  1  0
 20 45  1  0
 21 22  2  0
 21 46  1  0
 22 23  1  0
 24 25  2  0
 24 26  1  0
 26 27  1  1
 26 28  1  0
 28 29  1  1
 28 30  1  0
 28 38  1  0
 30 31  2  0
 30 35  1  0
 31 32  1  0
 31 47  1  0
 32 33  2  0
 32 48  1  0
 33 34  1  0
 33 49  1  0
 34 35  2  0
 34 50  1  0
 35 36  1  0
 36 37  2  0
 36 51  1  0
 37 38  1  0
M  END

