
     RDKit          3D

 32 34  0  0  0  0  0  0  0  0999 V2000
    2.2659    0.9367    2.4135 C   0  0  0  0  0  0  0  0  0  0  0  0
    3.0681    0.1903    1.3977 C   0  0  0  0  0  0  0  0  0  0  0  0
    2.7001    0.1088    0.1203 N   0  0  0  0  0  0  0  0  0  0  0  0
    3.6369   -0.6164   -0.5099 N   0  0  0  0  0  0  0  0  0  0  0  0
    3.4580   -0.9294   -1.9138 C   0  0  0  0  0  0  0  0  0  0  0  0
    4.6261   -1.0354    0.3367 C   0  0  0  0  0  0  0  0  0  0  0  0
    5.8344   -1.8314   -0.0539 C   0  0  0  0  0  0  0  0  0  0  0  0
    5.5482   -3.1449   -0.6165 N   0  0  0  0  0  0  0  0  0  0  0  0
    5.8228   -3.5197   -1.8855 C   0  0  0  0  0  0  0  0  0  0  0  0
    5.4070   -4.8786   -2.0346 C   0  0  0  0  0  0  0  0  0  0  0  0
    4.8691   -5.3193   -0.7914 C   0  0  0  0  0  0  0  0  0  0  0  0
    4.3365   -6.5743   -0.3479 C   0  0  0  0  0  0  0  0  0  0  0  0
    3.9338   -6.6598    1.0129 C   0  0  0  0  0  0  0  0  0  0  0  0
    4.0541   -5.5661    1.8577 C   0  0  0  0  0  0  0  0  0  0  0  0
    3.5130   -5.7143    3.6731 Br  0  0  0  0  0  0  0  0  0  0  0  0
    4.5768   -4.2783    1.4499 C   0  0  0  0  0  0  0  0  0  0  0  0
    4.9635   -4.2291    0.0982 C   0  0  0  0  0  0  0  0  0  0  0  0
    4.2795   -0.5208    1.5808 C   0  0  0  0  0  0  0  0  0  0  0  0
    5.1636   -0.7066    3.0566 Cl  0  0  0  0  0  0  0  0  0  0  0  0
    1.3787    1.3743    1.9363 H   0  0  0  0  0  0  0  0  0  0  0  0
    2.8550    1.7465    2.8739 H   0  0  0  0  0  0  0  0  0  0  0  0
    1.9361    0.2712    3.2278 H   0  0  0  0  0  0  0  0  0  0  0  0
    2.7379   -0.2072   -2.3174 H   0  0  0  0  0  0  0  0  0  0  0  0
    3.0660   -1.9495   -2.0539 H   0  0  0  0  0  0  0  0  0  0  0  0
    4.4093   -0.8361   -2.4578 H   0  0  0  0  0  0  0  0  0  0  0  0
    6.4465   -1.9629    0.8526 H   0  0  0  0  0  0  0  0  0  0  0  0
    6.4506   -1.2924   -0.7914 H   0  0  0  0  0  0  0  0  0  0  0  0
    6.2857   -2.8423   -2.5987 H   0  0  0  0  0  0  0  0  0  0  0  0
    5.5059   -5.4602   -2.9502 H   0  0  0  0  0  0  0  0  0  0  0  0
    4.2499   -7.4278   -1.0198 H   0  0  0  0  0  0  0  0  0  0  0  0
    3.5268   -7.5940    1.4032 H   0  0  0  0  0  0  0  0  0  0  0  0
    4.6432   -3.4453    2.1429 H   0  0  0  0  0  0  0  0  0  0  0  0
  1  2  1  0
  1 20  1  0
  1 21  1  0
  1 22  1  0
  2  3  2  0
  2 18  1  0
  3  4  1  0
  4  5  1  0
  4  6  1  0
  5 23  1  0
  5 24  1  0
  5 25  1  0
  6  7  1  0
  6 18  2  0
  7  8  1  0
  7 26  1  0
  7 27  1  0
  8  9  1  0
  8 17  1  0
  9 10  2  0
  9 28  1  0
 10 11  1  0
 10 29  1  0
 11 12  1  0
 11 17  2  0
 12 13  2  0
 12 30  1  0
 13 14  1  0
 13 31  1  0
 14 15  1  0
 14 16  2  0
 16 17  1  0
 16 32  1  0
 18 19  1  0
M  END

