
     RDKit          3D

 41 42  0  0  0  0  0  0  0  0999 V2000
    2.1030    1.1937    2.0848 C   0  0  0  0  0  0  0  0  0  0  0  0
    2.2276    0.1291    1.0070 C   0  0  0  0  0  0  0  0  0  0  0  0
    2.8565   -1.0626    1.5081 O   0  0  0  0  0  0  0  0  0  0  0  0
    4.2058   -1.1123    1.4972 C   0  0  0  0  0  0  0  0  0  0  0  0
    4.8927   -0.2080    1.0816 O   0  0  0  0  0  0  0  0  0  0  0  0
    4.7230   -2.4134    2.1044 C   0  0  1  0  0  0  0  0  0  0  0  0
    4.0535   -3.6696    1.5052 C   0  0  0  0  0  0  0  0  0  0  0  0
    4.5906   -3.9708    0.0991 C   0  0  0  0  0  0  0  0  0  0  0  0
    6.0455   -4.0799    0.0598 N   0  0  0  0  0  0  0  0  0  0  0  0
    6.5877   -5.3658    0.3180 C   0  0  0  0  0  0  0  0  0  0  0  0
    5.8292   -6.2487    0.8111 O   0  0  0  0  0  0  0  0  0  0  0  0
    7.9605   -5.6231   -0.0482 C   0  0  0  0  0  0  0  0  0  0  0  0
    8.6995   -4.7600   -1.0420 C   0  0  0  0  0  0  0  0  0  0  0  0
    8.6344   -6.7205    0.5209 C   0  0  0  0  0  0  0  0  0  0  0  0
    7.9594   -7.8645    1.2781 C   0  0  0  0  0  0  0  0  0  0  0  0
    8.8543   -8.7844    0.6090 N   0  0  0  0  0  0  0  0  0  0  0  0
    9.5041   -7.7604   -0.2075 C   0  0  0  0  0  0  0  0  0  0  0  0
    6.7064   -2.8779    0.5666 C   0  0  0  0  0  0  0  0  0  0  0  0
    6.2527   -2.5166    1.9930 C   0  0  0  0  0  0  0  0  0  0  0  0
    1.5484    2.0621    1.6941 H   0  0  0  0  0  0  0  0  0  0  0  0
    3.0966    1.5393    2.4065 H   0  0  0  0  0  0  0  0  0  0  0  0
    1.5611    0.8050    2.9612 H   0  0  0  0  0  0  0  0  0  0  0  0
    2.8053    0.5058    0.1499 H   0  0  0  0  0  0  0  0  0  0  0  0
    1.2383   -0.2009    0.6571 H   0  0  0  0  0  0  0  0  0  0  0  0
    4.4354   -2.3481    3.1702 H   0  0  0  0  0  0  0  0  0  0  0  0
    2.9601   -3.5464    1.4861 H   0  0  0  0  0  0  0  0  0  0  0  0
    4.2861   -4.5367    2.1422 H   0  0  0  0  0  0  0  0  0  0  0  0
    4.2906   -3.1648   -0.5986 H   0  0  0  0  0  0  0  0  0  0  0  0
    4.1632   -4.9133   -0.2657 H   0  0  0  0  0  0  0  0  0  0  0  0
    8.0022   -4.1841   -1.6673 H   0  0  0  0  0  0  0  0  0  0  0  0
    9.3239   -5.3749   -1.7157 H   0  0  0  0  0  0  0  0  0  0  0  0
    9.3947   -4.0401   -0.5672 H   0  0  0  0  0  0  0  0  0  0  0  0
    6.8938   -8.0322    1.0054 H   0  0  0  0  0  0  0  0  0  0  0  0
    8.0249   -7.9426    2.3797 H   0  0  0  0  0  0  0  0  0  0  0  0
    8.8473   -9.8023    0.5326 H   0  0  0  0  0  0  0  0  0  0  0  0
    9.3263   -7.9654   -1.2818 H   0  0  0  0  0  0  0  0  0  0  0  0
   10.5998   -7.7693   -0.0460 H   0  0  0  0  0  0  0  0  0  0  0  0
    6.4837   -2.0326   -0.1081 H   0  0  0  0  0  0  0  0  0  0  0  0
    7.7938   -3.0198    0.5572 H   0  0  0  0  0  0  0  0  0  0  0  0
    6.7219   -1.5691    2.2998 H   0  0  0  0  0  0  0  0  0  0  0  0
    6.5994   -3.3022    2.6851 H   0  0  0  0  0  0  0  0  0  0  0  0
  1  2  1  0
  1 20  1  0
  1 21  1  0
  1 22  1  0
  2  3  1  0
  2 23  1  0
  2 24  1  0
  3  4  1  0
  4  5  2  0
  4  6  1  0
  6  7  1  0
  6 19  1  0
  6 25  1  1
  7  8  1  0
  7 26  1  0
  7 27  1  0
  8  9  1  0
  8 28  1  0
  8 29  1  0
  9 10  1  0
  9 18  1  0
 10 11  2  0
 10 12  1  0
 12 13  1  0
 12 14  2  0
 13 30  1  0
 13 31  1  0
 13 32  1  0
 14 15  1  0
 14 17  1  0
 15 16  1  0
 15 33  1  0
 15 34  1  0
 16 17  1  0
 16 35  1  0
 17 36  1  0
 17 37  1  0
 18 19  1  0
 18 38  1  0
 18 39  1  0
 19 40  1  0
 19 41  1  0
M  END

