
     RDKit          3D

 70 75  0  0  0  0  0  0  0  0999 V2000
    2.5265   -5.1596   -4.9915 C   0  0  0  0  0  0  0  0  0  0  0  0
    2.9321   -4.6074   -3.6243 C   0  0  0  0  0  0  0  0  0  0  0  0
    3.7781   -3.3334   -3.7103 C   0  0  0  0  0  0  0  0  0  0  0  0
    4.1835   -2.7926   -2.3308 C   0  0  0  0  0  0  0  0  0  0  0  0
    5.0127   -1.5905   -2.3653 N   0  0  0  0  0  0  0  0  0  0  0  0
    4.3819   -0.2665   -2.4188 C   0  0  0  0  0  0  0  0  0  0  0  0
    2.9363   -0.1859   -1.9281 C   0  0  0  0  0  0  0  0  0  0  0  0
    2.4175    1.2575   -1.9377 C   0  0  0  0  0  0  0  0  0  0  0  0
    0.9652    1.3787   -1.4753 C   0  0  0  0  0  0  0  0  0  0  0  0
    6.3650   -1.6915   -2.6223 C   0  0  0  0  0  0  0  0  0  0  0  0
    7.1683   -0.5312   -2.8589 C   0  0  0  0  0  0  0  0  0  0  0  0
    8.5291   -0.6309   -3.0919 C   0  0  0  0  0  0  0  0  0  0  0  0
    9.1846   -1.8779   -3.1187 C   0  0  0  0  0  0  0  0  0  0  0  0
   10.5275   -1.9868   -3.3612 N   0  0  0  0  0  0  0  0  0  0  0  0
   11.0747   -3.1719   -3.3912 C   0  0  0  0  0  0  0  0  0  0  0  0
   12.5114   -3.3188   -3.6507 C   0  0  0  0  0  0  0  0  0  0  0  0
   13.3227   -2.1930   -3.8880 C   0  0  0  0  0  0  0  0  0  0  0  0
   14.6828   -2.3494   -4.1328 C   0  0  0  0  0  0  0  0  0  0  0  0
   15.2573   -3.6312   -4.1438 C   0  0  0  0  0  0  0  0  0  0  0  0
   14.4637   -4.7495   -3.9073 C   0  0  0  0  0  0  0  0  0  0  0  0
   13.0888   -4.6065   -3.6606 C   0  0  0  0  0  0  0  0  0  0  0  0
   12.2742   -5.8358   -3.4073 C   0  0  0  0  0  0  0  0  0  0  0  0
   12.8024   -6.9419   -3.3825 O   0  0  0  0  0  0  0  0  0  0  0  0
   10.8222   -5.6596   -3.1921 C   0  0  0  0  0  0  0  0  0  0  0  0
    9.9870   -6.8687   -2.9473 C   0  0  0  0  0  0  0  0  0  0  0  0
   10.2461   -7.6469   -1.8294 C   0  0  0  0  0  0  0  0  0  0  0  0
    9.4717   -8.7906   -1.5267 C   0  0  0  0  0  0  0  0  0  0  0  0
    8.4342   -9.1650   -2.3518 C   0  0  0  0  0  0  0  0  0  0  0  0
    8.1424   -8.4194   -3.5267 C   0  0  0  0  0  0  0  0  0  0  0  0
    7.0918   -8.8056   -4.4074 C   0  0  0  0  0  0  0  0  0  0  0  0
    6.8323   -8.0981   -5.5612 C   0  0  0  0  0  0  0  0  0  0  0  0
    7.6249   -6.9696   -5.8887 C   0  0  0  0  0  0  0  0  0  0  0  0
    8.6437   -6.5642   -5.0518 C   0  0  0  0  0  0  0  0  0  0  0  0
    8.9322   -7.2600   -3.8425 C   0  0  0  0  0  0  0  0  0  0  0  0
   10.2985   -4.3929   -3.1696 C   0  0  0  0  0  0  0  0  0  0  0  0
    8.9652   -4.2512   -2.9192 O   0  0  0  0  0  0  0  0  0  0  0  0
    8.3838   -3.0213   -2.8963 C   0  0  0  0  0  0  0  0  0  0  0  0
    7.0200   -2.9505   -2.6613 C   0  0  0  0  0  0  0  0  0  0  0  0
    1.9163   -6.0712   -4.8929 H   0  0  0  0  0  0  0  0  0  0  0  0
    3.4123   -5.4154   -5.5960 H   0  0  0  0  0  0  0  0  0  0  0  0
    1.9365   -4.4236   -5.5632 H   0  0  0  0  0  0  0  0  0  0  0  0
    3.4948   -5.3801   -3.0696 H   0  0  0  0  0  0  0  0  0  0  0  0
    2.0267   -4.4057   -3.0226 H   0  0  0  0  0  0  0  0  0  0  0  0
    3.2181   -2.5512   -4.2543 H   0  0  0  0  0  0  0  0  0  0  0  0
    4.6852   -3.5298   -4.3073 H   0  0  0  0  0  0  0  0  0  0  0  0
    4.7116   -3.5730   -1.7625 H   0  0  0  0  0  0  0  0  0  0  0  0
    3.2822   -2.5790   -1.7424 H   0  0  0  0  0  0  0  0  0  0  0  0
    4.4305    0.1379   -3.4503 H   0  0  0  0  0  0  0  0  0  0  0  0
    4.9781    0.4206   -1.7957 H   0  0  0  0  0  0  0  0  0  0  0  0
    2.8657   -0.5887   -0.9025 H   0  0  0  0  0  0  0  0  0  0  0  0
    2.2743   -0.8049   -2.5573 H   0  0  0  0  0  0  0  0  0  0  0  0
    2.5160    1.6735   -2.9567 H   0  0  0  0  0  0  0  0  0  0  0  0
    3.0634    1.8815   -1.2941 H   0  0  0  0  0  0  0  0  0  0  0  0
    0.2870    0.8001   -2.1244 H   0  0  0  0  0  0  0  0  0  0  0  0
    0.6256    2.4262   -1.4903 H   0  0  0  0  0  0  0  0  0  0  0  0
    0.8383    1.0026   -0.4465 H   0  0  0  0  0  0  0  0  0  0  0  0
    6.7185    0.4585   -2.8649 H   0  0  0  0  0  0  0  0  0  0  0  0
    9.1310    0.2627   -3.2706 H   0  0  0  0  0  0  0  0  0  0  0  0
   12.8577   -1.2063   -3.8744 H   0  0  0  0  0  0  0  0  0  0  0  0
   15.3058   -1.4703   -4.3169 H   0  0  0  0  0  0  0  0  0  0  0  0
   16.3266   -3.7495   -4.3372 H   0  0  0  0  0  0  0  0  0  0  0  0
   14.8775   -5.7596   -3.9055 H   0  0  0  0  0  0  0  0  0  0  0  0
   11.0649   -7.3656   -1.1649 H   0  0  0  0  0  0  0  0  0  0  0  0
    9.7023   -9.3728   -0.6309 H   0  0  0  0  0  0  0  0  0  0  0  0
    7.8277  -10.0452   -2.1210 H   0  0  0  0  0  0  0  0  0  0  0  0
    6.4962   -9.6870   -4.1532 H   0  0  0  0  0  0  0  0  0  0  0  0
    6.0268   -8.4112   -6.2306 H   0  0  0  0  0  0  0  0  0  0  0  0
    7.4322   -6.4224   -6.8152 H   0  0  0  0  0  0  0  0  0  0  0  0
    9.2560   -5.7035   -5.3255 H   0  0  0  0  0  0  0  0  0  0  0  0
    6.4947   -3.8908   -2.5152 H   0  0  0  0  0  0  0  0  0  0  0  0
  1  2  1  0
  1 39  1  0
  1 40  1  0
  1 41  1  0
  2  3  1  0
  2 42  1  0
  2 43  1  0
  3  4  1  0
  3 44  1  0
  3 45  1  0
  4  5  1  0
  4 46  1  0
  4 47  1  0
  5  6  1  0
  5 10  1  0
  6  7  1  0
  6 48  1  0
  6 49  1  0
  7  8  1  0
  7 50  1  0
  7 51  1  0
  8  9  1  0
  8 52  1  0
  8 53  1  0
  9 54  1  0
  9 55  1  0
  9 56  1  0
 10 11  2  0
 10 38  1  0
 11 12  1  0
 11 57  1  0
 12 13  2  0
 12 58  1  0
 13 14  1  0
 13 37  1  0
 14 15  2  0
 15 16  1  0
 15 35  1  0
 16 17  2  0
 16 21  1  0
 17 18  1  0
 17 59  1  0
 18 19  2  0
 18 60  1  0
 19 20  1  0
 19 61  1  0
 20 21  2  0
 20 62  1  0
 21 22  1  0
 22 23  2  0
 22 24  1  0
 24 25  1  0
 24 35  2  0
 25 26  2  0
 25 34  1  0
 26 27  1  0
 26 63  1  0
 27 28  2  0
 27 64  1  0
 28 29  1  0
 28 65  1  0
 29 30  1  0
 29 34  2  0
 30 31  2  0
 30 66  1  0
 31 32  1  0
 31 67  1  0
 32 33  2  0
 32 68  1  0
 33 34  1  0
 33 69  1  0
 35 36  1  0
 36 37  1  0
 37 38  2  0
 38 70  1  0
M  END

