
     RDKit          3D

 74 74  0  0  0  0  0  0  0  0999 V2000
    6.1193   -3.0911    3.5015 C   0  0  0  0  0  0  0  0  0  0  0  0
    5.1641   -2.2085    2.6965 C   0  0  0  0  0  0  0  0  0  0  0  0
    5.5052   -0.7179    2.7876 C   0  0  0  0  0  0  0  0  0  0  0  0
    4.5540    0.1612    1.9731 C   0  0  0  0  0  0  0  0  0  0  0  0
    4.7687    1.6780    2.1340 C   0  0  0  0  0  0  0  0  0  0  0  0
    6.0968    2.1901    1.7801 N   0  0  0  0  0  0  0  0  0  0  0  0
    6.5376    2.3519    0.4777 C   0  0  0  0  0  0  0  0  0  0  0  0
    7.6316    2.8470    0.2303 O   0  0  0  0  0  0  0  0  0  0  0  0
    5.6881    1.8613   -0.7059 C   0  0  1  0  0  0  0  0  0  0  0  0
    5.5569    2.9779   -1.7603 C   0  0  0  0  0  0  0  0  0  0  0  0
    4.8170    4.1938   -1.2233 C   0  0  0  0  0  0  0  0  0  0  0  0
    4.1022    4.9054   -2.1295 N   0  0  0  0  0  0  0  0  0  0  0  0
    4.8907    4.5222   -0.0436 O   0  0  0  0  0  0  0  0  0  0  0  0
    6.3537    0.6882   -1.2381 N   0  0  0  0  0  0  0  0  0  0  0  0
    5.6504   -0.3272   -1.8341 C   0  0  0  0  0  0  0  0  0  0  0  0
    4.4353   -0.3641   -1.8811 O   0  0  0  0  0  0  0  0  0  0  0  0
    6.5014   -1.2392   -2.3309 O   0  0  0  0  0  0  0  0  0  0  0  0
    6.0344   -2.4712   -2.9829 C   0  0  1  0  0  0  0  0  0  0  0  0
    5.2410   -2.1217   -4.2460 C   0  0  0  0  0  0  0  0  0  0  0  0
    7.3418   -3.1799   -3.3398 C   0  0  0  0  0  0  0  0  0  0  0  0
    5.2129   -3.3059   -1.9962 C   0  0  0  0  0  0  0  0  0  0  0  0
    6.9222    2.8216    2.8463 C   0  0  1  0  0  0  0  0  0  0  0  0
    6.4924    4.3442    2.8071 C   0  0  0  0  0  0  0  0  0  0  0  0
    5.4837    4.7179    3.4049 O   0  0  0  0  0  0  0  0  0  0  0  0
    7.2585    5.1603    2.0795 N   0  0  0  0  0  0  0  0  0  0  0  0
    6.8523    6.5225    1.8016 C   0  0  0  0  0  0  0  0  0  0  0  0
    7.9202    7.1968    0.9642 C   0  0  0  0  0  0  0  0  0  0  0  0
    8.8488    6.6166    0.4577 O   0  0  0  0  0  0  0  0  0  0  0  0
    7.6808    8.5041    0.8439 O   0  0  0  0  0  0  0  0  0  0  0  0
    8.6084    9.2548    0.0516 C   0  0  0  0  0  0  0  0  0  0  0  0
    6.9760    2.2286    4.2035 C   0  0  0  0  0  0  0  0  0  0  0  0
    8.0231    1.2474    4.4350 C   0  0  0  0  0  0  0  0  0  0  0  0
    8.0364    0.4720    5.5752 C   0  0  0  0  0  0  0  0  0  0  0  0
    7.0242    0.5871    6.5688 C   0  0  0  0  0  0  0  0  0  0  0  0
    6.0091    1.5727    6.3696 C   0  0  0  0  0  0  0  0  0  0  0  0
    5.9777    2.3625    5.2391 C   0  0  0  0  0  0  0  0  0  0  0  0
    5.8402   -4.1554    3.4365 H   0  0  0  0  0  0  0  0  0  0  0  0
    6.1219   -2.8043    4.5654 H   0  0  0  0  0  0  0  0  0  0  0  0
    7.1558   -2.9928    3.1378 H   0  0  0  0  0  0  0  0  0  0  0  0
    4.1289   -2.3672    3.0518 H   0  0  0  0  0  0  0  0  0  0  0  0
    5.1669   -2.5261    1.6366 H   0  0  0  0  0  0  0  0  0  0  0  0
    6.5422   -0.5593    2.4446 H   0  0  0  0  0  0  0  0  0  0  0  0
    5.4987   -0.3983    3.8421 H   0  0  0  0  0  0  0  0  0  0  0  0
    3.5135   -0.0218    2.2962 H   0  0  0  0  0  0  0  0  0  0  0  0
    4.5825   -0.1282    0.9094 H   0  0  0  0  0  0  0  0  0  0  0  0
    4.6219    1.9388    3.1878 H   0  0  0  0  0  0  0  0  0  0  0  0
    4.0210    2.2352    1.5456 H   0  0  0  0  0  0  0  0  0  0  0  0
    4.6851    1.5478   -0.4017 H   0  0  0  0  0  0  0  0  0  0  0  0
    5.0604    2.5642   -2.6510 H   0  0  0  0  0  0  0  0  0  0  0  0
    6.5696    3.3041   -2.0521 H   0  0  0  0  0  0  0  0  0  0  0  0
    4.0031    4.6106   -3.0916 H   0  0  0  0  0  0  0  0  0  0  0  0
    3.5997    5.7279   -1.8146 H   0  0  0  0  0  0  0  0  0  0  0  0
    7.3648    0.6957   -1.3228 H   0  0  0  0  0  0  0  0  0  0  0  0
    5.8452   -1.4900   -4.9162 H   0  0  0  0  0  0  0  0  0  0  0  0
    4.3129   -1.5913   -3.9970 H   0  0  0  0  0  0  0  0  0  0  0  0
    4.9842   -3.0446   -4.7888 H   0  0  0  0  0  0  0  0  0  0  0  0
    7.9528   -2.5545   -4.0082 H   0  0  0  0  0  0  0  0  0  0  0  0
    7.1311   -4.1324   -3.8490 H   0  0  0  0  0  0  0  0  0  0  0  0
    7.9280   -3.3910   -2.4328 H   0  0  0  0  0  0  0  0  0  0  0  0
    4.2767   -2.7991   -1.7304 H   0  0  0  0  0  0  0  0  0  0  0  0
    5.7897   -3.4914   -1.0767 H   0  0  0  0  0  0  0  0  0  0  0  0
    4.9706   -4.2801   -2.4487 H   0  0  0  0  0  0  0  0  0  0  0  0
    7.9296    2.8626    2.4102 H   0  0  0  0  0  0  0  0  0  0  0  0
    7.9653    4.7553    1.4650 H   0  0  0  0  0  0  0  0  0  0  0  0
    6.6941    7.0848    2.7355 H   0  0  0  0  0  0  0  0  0  0  0  0
    5.9000    6.5397    1.2412 H   0  0  0  0  0  0  0  0  0  0  0  0
    8.2520   10.2914    0.0685 H   0  0  0  0  0  0  0  0  0  0  0  0
    8.6348    8.8739   -0.9802 H   0  0  0  0  0  0  0  0  0  0  0  0
    9.6208    9.1904    0.4769 H   0  0  0  0  0  0  0  0  0  0  0  0
    8.8245    1.1331    3.6971 H   0  0  0  0  0  0  0  0  0  0  0  0
    8.8573   -0.2386    5.7205 H   0  0  0  0  0  0  0  0  0  0  0  0
    7.0487   -0.0215    7.4734 H   0  0  0  0  0  0  0  0  0  0  0  0
    5.2482    1.7260    7.1417 H   0  0  0  0  0  0  0  0  0  0  0  0
    5.2022    3.1282    5.1592 H   0  0  0  0  0  0  0  0  0  0  0  0
  1  2  1  0
  1 37  1  0
  1 38  1  0
  1 39  1  0
  2  3  1  0
  2 40  1  0
  2 41  1  0
  3  4  1  0
  3 42  1  0
  3 43  1  0
  4  5  1  0
  4 44  1  0
  4 45  1  0
  5  6  1  0
  5 46  1  0
  5 47  1  0
  6  7  1  0
  6 22  1  0
  7  8  2  0
  7  9  1  0
  9 10  1  0
  9 14  1  0
  9 48  1  1
 10 11  1  0
 10 49  1  0
 10 50  1  0
 11 12  1  0
 11 13  2  0
 12 51  1  0
 12 52  1  0
 14 15  1  0
 14 53  1  0
 15 16  2  0
 15 17  1  0
 18 17  1  1
 18 19  1  0
 18 20  1  0
 18 21  1  0
 19 54  1  0
 19 55  1  0
 19 56  1  0
 20 57  1  0
 20 58  1  0
 20 59  1  0
 21 60  1  0
 21 61  1  0
 21 62  1  0
 22 23  1  0
 22 31  1  0
 22 63  1  6
 23 24  2  0
 23 25  1  0
 25 26  1  0
 25 64  1  0
 26 27  1  0
 26 65  1  0
 26 66  1  0
 27 28  2  0
 27 29  1  0
 29 30  1  0
 30 67  1  0
 30 68  1  0
 30 69  1  0
 31 32  2  0
 31 36  1  0
 32 33  1  0
 32 70  1  0
 33 34  2  0
 33 71  1  0
 34 35  1  0
 34 72  1  0
 35 36  2  0
 35 73  1  0
 36 74  1  0
M  END

