
     RDKit          3D

 47 50  0  0  0  0  0  0  0  0999 V2000
    1.3787   -0.0566   -0.1282 O   0  0  0  0  0  0  0  0  0  0  0  0
    2.6017   -0.0455   -0.1894 C   0  0  0  0  0  0  0  0  0  0  0  0
    3.2851    0.0082   -1.3885 N   0  0  0  0  0  0  0  0  0  0  0  0
    2.5600    0.2202   -2.6412 C   0  0  2  0  0  0  0  0  0  0  0  0
    2.8720   -0.8847   -3.6754 C   0  0  0  0  0  0  0  0  0  0  0  0
    4.3586   -1.1216   -3.9612 C   0  0  0  0  0  0  0  0  0  0  0  0
    5.1214    0.0952   -4.4724 C   0  0  0  0  0  0  0  0  0  0  0  0
    5.1388    1.1792   -3.5344 O   0  0  0  0  0  0  0  0  0  0  0  0
    4.0712    2.0486   -3.5797 C   0  0  0  0  0  0  0  0  0  0  0  0
    4.2986    3.3652   -3.9909 C   0  0  0  0  0  0  0  0  0  0  0  0
    3.2531    4.2916   -4.0063 C   0  0  0  0  0  0  0  0  0  0  0  0
    1.9870    3.8726   -3.6079 C   0  0  0  0  0  0  0  0  0  0  0  0
    0.9714    4.7503   -3.6204 F   0  0  0  0  0  0  0  0  0  0  0  0
    1.7462    2.5660   -3.1869 C   0  0  0  0  0  0  0  0  0  0  0  0
    2.7908    1.6335   -3.1640 C   0  0  0  0  0  0  0  0  0  0  0  0
    3.3930   -0.1215    0.9484 N   0  0  0  0  0  0  0  0  0  0  0  0
    2.7641   -0.0170    2.2504 C   0  0  0  0  0  0  0  0  0  0  0  0
    3.2591   -1.1331    3.1529 C   0  0  0  0  0  0  0  0  0  0  0  0
    4.7217   -1.1366    3.2371 N   0  0  0  0  0  0  0  0  0  0  0  0
    5.3225   -1.8518    4.3351 C   0  0  1  0  0  0  0  0  0  0  0  0
    6.4241   -1.2137    5.1276 C   0  0  0  0  0  0  0  0  0  0  0  0
    5.0613   -1.3780    5.7460 C   0  0  0  0  0  0  0  0  0  0  0  0
    5.5106   -0.8026    2.1614 C   0  0  0  0  0  0  0  0  0  0  0  0
    6.7158   -0.9705    2.1312 O   0  0  0  0  0  0  0  0  0  0  0  0
    4.8407   -0.1407    0.9461 C   0  0  0  0  0  0  0  0  0  0  0  0
    4.2611    0.2803   -1.3962 H   0  0  0  0  0  0  0  0  0  0  0  0
    1.4998    0.1359   -2.3723 H   0  0  0  0  0  0  0  0  0  0  0  0
    2.3405   -0.6371   -4.6109 H   0  0  0  0  0  0  0  0  0  0  0  0
    2.4334   -1.8246   -3.3020 H   0  0  0  0  0  0  0  0  0  0  0  0
    4.4639   -1.9273   -4.7088 H   0  0  0  0  0  0  0  0  0  0  0  0
    4.8539   -1.4893   -3.0463 H   0  0  0  0  0  0  0  0  0  0  0  0
    4.7032    0.4509   -5.4319 H   0  0  0  0  0  0  0  0  0  0  0  0
    6.1776   -0.1660   -4.6425 H   0  0  0  0  0  0  0  0  0  0  0  0
    5.3079    3.6501   -4.2943 H   0  0  0  0  0  0  0  0  0  0  0  0
    3.4055    5.3249   -4.3235 H   0  0  0  0  0  0  0  0  0  0  0  0
    0.7417    2.2890   -2.8601 H   0  0  0  0  0  0  0  0  0  0  0  0
    1.6794   -0.0857    2.1043 H   0  0  0  0  0  0  0  0  0  0  0  0
    2.9904    0.9640    2.7145 H   0  0  0  0  0  0  0  0  0  0  0  0
    2.8882   -2.1077    2.7814 H   0  0  0  0  0  0  0  0  0  0  0  0
    2.8581   -0.9958    4.1685 H   0  0  0  0  0  0  0  0  0  0  0  0
    5.3919   -2.9378    4.1836 H   0  0  0  0  0  0  0  0  0  0  0  0
    6.7342   -0.2107    4.8287 H   0  0  0  0  0  0  0  0  0  0  0  0
    7.2433   -1.8573    5.4581 H   0  0  0  0  0  0  0  0  0  0  0  0
    4.4552   -0.4762    5.8739 H   0  0  0  0  0  0  0  0  0  0  0  0
    4.9108   -2.1361    6.5194 H   0  0  0  0  0  0  0  0  0  0  0  0
    5.2190   -0.7100    0.0847 H   0  0  0  0  0  0  0  0  0  0  0  0
    5.2857    0.8738    0.8794 H   0  0  0  0  0  0  0  0  0  0  0  0
  1  2  2  0
  2  3  1  0
  2 16  1  0
  3  4  1  0
  3 26  1  0
  4  5  1  0
  4 15  1  0
  4 27  1  1
  5  6  1  0
  5 28  1  0
  5 29  1  0
  6  7  1  0
  6 30  1  0
  6 31  1  0
  7  8  1  0
  7 32  1  0
  7 33  1  0
  8  9  1  0
  9 10  1  0
  9 15  2  0
 10 11  2  0
 10 34  1  0
 11 12  1  0
 11 35  1  0
 12 13  1  0
 12 14  2  0
 14 15  1  0
 14 36  1  0
 16 17  1  0
 16 25  1  0
 17 18  1  0
 17 37  1  0
 17 38  1  0
 18 19  1  0
 18 39  1  0
 18 40  1  0
 19 20  1  0
 19 23  1  0
 20 21  1  0
 20 22  1  0
 20 41  1  1
 21 22  1  0
 21 42  1  0
 21 43  1  0
 22 44  1  0
 22 45  1  0
 23 24  2  0
 23 25  1  0
 25 46  1  0
 25 47  1  0
M  END

