
     RDKit          3D

 48 50  0  0  0  0  0  0  0  0999 V2000
    7.9095    4.2271    5.8516 C   0  0  0  0  0  0  0  0  0  0  0  0
    7.9389    3.7966    4.3901 C   0  0  0  0  0  0  0  0  0  0  0  0
    7.3661    2.0875    4.2146 S   0  0  1  0  0  0  0  0  0  0  0  0
    8.3218    1.2262    4.9165 O   0  0  0  0  0  0  0  0  0  0  0  0
    5.9305    2.0457    4.5076 O   0  0  0  0  0  0  0  0  0  0  0  0
    7.4839    1.7952    2.5364 N   0  0  0  0  0  0  0  0  0  0  0  0
    8.5386    1.0601    1.9780 C   0  0  0  0  0  0  0  0  0  0  0  0
    9.6288    1.5121    1.2371 C   0  0  0  0  0  0  0  0  0  0  0  0
    9.9571    2.9239    0.8621 C   0  0  0  0  0  0  0  0  0  0  0  0
   10.3294    0.3227    0.9280 C   0  0  0  0  0  0  0  0  0  0  0  0
    9.7291   -0.7549    1.4302 N   0  0  0  0  0  0  0  0  0  0  0  0
    8.6443   -0.3098    2.0643 N   0  0  0  0  0  0  0  0  0  0  0  0
    7.7633   -1.2351    2.7651 C   0  0  2  0  0  0  0  0  0  0  0  0
    6.9612   -0.6265    3.1992 H   0  0  0  0  0  0  0  0  0  0  0  0
    8.4609   -2.0521    3.8845 C   0  0  0  0  0  0  0  0  0  0  0  0
    7.9101   -3.4830    3.7136 C   0  0  0  0  0  0  0  0  0  0  0  0
    6.7674   -3.3344    2.8131 N   0  0  0  0  0  0  0  0  0  0  0  0
    6.2453   -4.5667    2.2602 C   0  0  0  0  0  0  0  0  0  0  0  0
    4.8811   -4.4101    1.6123 C   0  0  0  0  0  0  0  0  0  0  0  0
    4.5765   -5.0599    0.4083 C   0  0  0  0  0  0  0  0  0  0  0  0
    3.3036   -4.9527   -0.1624 C   0  0  0  0  0  0  0  0  0  0  0  0
    2.3180   -4.1849    0.4629 C   0  0  0  0  0  0  0  0  0  0  0  0
    2.6140   -3.5257    1.6614 C   0  0  0  0  0  0  0  0  0  0  0  0
    3.8842   -3.6384    2.2309 C   0  0  0  0  0  0  0  0  0  0  0  0
    7.1457   -2.3091    1.8550 C   0  0  0  0  0  0  0  0  0  0  0  0
    8.2552    5.2684    5.9403 H   0  0  0  0  0  0  0  0  0  0  0  0
    8.5667    3.5879    6.4589 H   0  0  0  0  0  0  0  0  0  0  0  0
    6.8885    4.1642    6.2560 H   0  0  0  0  0  0  0  0  0  0  0  0
    8.9524    3.8136    3.9629 H   0  0  0  0  0  0  0  0  0  0  0  0
    7.2706    4.3955    3.7542 H   0  0  0  0  0  0  0  0  0  0  0  0
    6.5471    1.6865    2.1490 H   0  0  0  0  0  0  0  0  0  0  0  0
    9.1074    3.5914    1.0703 H   0  0  0  0  0  0  0  0  0  0  0  0
   10.1993    3.0109   -0.2093 H   0  0  0  0  0  0  0  0  0  0  0  0
   10.8291    3.3055    1.4210 H   0  0  0  0  0  0  0  0  0  0  0  0
   11.2493    0.2122    0.3527 H   0  0  0  0  0  0  0  0  0  0  0  0
    8.2365   -1.6180    4.8677 H   0  0  0  0  0  0  0  0  0  0  0  0
    9.5489   -2.0223    3.7418 H   0  0  0  0  0  0  0  0  0  0  0  0
    7.5940   -3.9442    4.6637 H   0  0  0  0  0  0  0  0  0  0  0  0
    8.6906   -4.1422    3.2721 H   0  0  0  0  0  0  0  0  0  0  0  0
    6.1600   -5.2891    3.0925 H   0  0  0  0  0  0  0  0  0  0  0  0
    6.9490   -5.0262    1.5275 H   0  0  0  0  0  0  0  0  0  0  0  0
    5.3461   -5.6565   -0.0907 H   0  0  0  0  0  0  0  0  0  0  0  0
    3.0846   -5.4665   -1.1023 H   0  0  0  0  0  0  0  0  0  0  0  0
    1.3237   -4.0969    0.0171 H   0  0  0  0  0  0  0  0  0  0  0  0
    1.8492   -2.9202    2.1556 H   0  0  0  0  0  0  0  0  0  0  0  0
    4.1250   -3.1190    3.1616 H   0  0  0  0  0  0  0  0  0  0  0  0
    6.2745   -1.9455    1.2882 H   0  0  0  0  0  0  0  0  0  0  0  0
    7.9118   -2.6586    1.1280 H   0  0  0  0  0  0  0  0  0  0  0  0
  1  2  1  0
  1 26  1  0
  1 27  1  0
  1 28  1  0
  2  3  1  0
  2 29  1  0
  2 30  1  0
  3  4  2  0
  3  5  2  0
  3  6  1  6
  6  7  1  0
  6 31  1  0
  7  8  2  0
  7 12  1  0
  8  9  1  0
  8 10  1  0
  9 32  1  0
  9 33  1  0
  9 34  1  0
 10 11  2  0
 10 35  1  0
 11 12  1  0
 12 13  1  0
 13 14  1  1
 13 15  1  0
 13 25  1  0
 15 16  1  0
 15 36  1  0
 15 37  1  0
 16 17  1  0
 16 38  1  0
 16 39  1  0
 17 18  1  0
 17 25  1  0
 18 19  1  0
 18 40  1  0
 18 41  1  0
 19 20  2  0
 19 24  1  0
 20 21  1  0
 20 42  1  0
 21 22  2  0
 21 43  1  0
 22 23  1  0
 22 44  1  0
 23 24  2  0
 23 45  1  0
 24 46  1  0
 25 47  1  0
 25 48  1  0
M  END

