
     RDKit          3D

 59 61  0  0  0  0  0  0  0  0999 V2000
    2.9946   -1.2914   -2.5509 C   0  0  0  0  0  0  0  0  0  0  0  0
    3.3715   -0.6278   -1.2257 C   0  0  0  0  0  0  0  0  0  0  0  0
    3.7943    0.8366   -1.3744 C   0  0  0  0  0  0  0  0  0  0  0  0
    4.1845    1.5018   -0.0420 C   0  0  0  0  0  0  0  0  0  0  0  0
    4.6050    2.9474   -0.1870 C   0  0  0  0  0  0  0  0  0  0  0  0
    3.6703    3.9901   -0.0987 C   0  0  0  0  0  0  0  0  0  0  0  0
    4.0567    5.3215   -0.2676 C   0  0  0  0  0  0  0  0  0  0  0  0
    5.3904    5.6708   -0.5326 C   0  0  0  0  0  0  0  0  0  0  0  0
    5.7807    7.1476   -0.6288 C   0  0  1  0  0  0  0  0  0  0  0  0
    6.2815    7.6916    0.6466 N   0  0  0  0  0  0  0  0  0  0  0  0
    7.4685    7.0861    1.2338 C   0  0  0  0  0  0  0  0  0  0  0  0
    8.0097    7.9445    2.3281 C   0  0  0  0  0  0  0  0  0  0  0  0
    8.0381    7.7075    3.5997 N   0  0  0  0  0  0  0  0  0  0  0  0
    8.6278    8.8126    4.1981 N   0  0  0  0  0  0  0  0  0  0  0  0
    8.9110    9.6418    3.2443 C   0  0  0  0  0  0  0  0  0  0  0  0
    9.5164   11.0010    3.3470 C   0  0  0  0  0  0  0  0  0  0  0  0
    8.5052   12.1272    3.1789 C   0  0  0  0  0  0  0  0  0  0  0  0
    7.4313   12.2504    4.0750 C   0  0  0  0  0  0  0  0  0  0  0  0
    6.5058   13.2865    3.9356 C   0  0  0  0  0  0  0  0  0  0  0  0
    6.6395   14.2145    2.8969 C   0  0  0  0  0  0  0  0  0  0  0  0
    7.7034   14.0978    1.9994 C   0  0  0  0  0  0  0  0  0  0  0  0
    8.6294   13.0586    2.1401 C   0  0  0  0  0  0  0  0  0  0  0  0
    8.5480    9.1585    2.0279 O   0  0  0  0  0  0  0  0  0  0  0  0
    6.7195    7.4944   -1.8132 C   0  0  1  0  0  0  0  0  0  0  0  0
    6.1073    7.0554   -3.1503 C   0  0  0  0  0  0  0  0  0  0  0  0
    7.0573    8.9909   -1.8356 C   0  0  0  0  0  0  0  0  0  0  0  0
    6.3247    4.6253   -0.6261 C   0  0  0  0  0  0  0  0  0  0  0  0
    5.9385    3.2936   -0.4557 C   0  0  0  0  0  0  0  0  0  0  0  0
    2.6942   -2.3415   -2.4065 H   0  0  0  0  0  0  0  0  0  0  0  0
    3.8403   -1.2818   -3.2589 H   0  0  0  0  0  0  0  0  0  0  0  0
    2.1537   -0.7688   -3.0370 H   0  0  0  0  0  0  0  0  0  0  0  0
    4.1913   -1.1954   -0.7485 H   0  0  0  0  0  0  0  0  0  0  0  0
    2.5186   -0.6902   -0.5252 H   0  0  0  0  0  0  0  0  0  0  0  0
    2.9749    1.4136   -1.8400 H   0  0  0  0  0  0  0  0  0  0  0  0
    4.6456    0.9071   -2.0756 H   0  0  0  0  0  0  0  0  0  0  0  0
    5.0053    0.9252    0.4187 H   0  0  0  0  0  0  0  0  0  0  0  0
    3.3316    1.4365    0.6555 H   0  0  0  0  0  0  0  0  0  0  0  0
    2.6215    3.7569    0.1088 H   0  0  0  0  0  0  0  0  0  0  0  0
    3.3021    6.1110   -0.1913 H   0  0  0  0  0  0  0  0  0  0  0  0
    4.8468    7.7071   -0.8127 H   0  0  0  0  0  0  0  0  0  0  0  0
    5.5307    7.6966    1.3346 H   0  0  0  0  0  0  0  0  0  0  0  0
    8.2441    6.9953    0.4566 H   0  0  0  0  0  0  0  0  0  0  0  0
    7.3184    6.0772    1.6635 H   0  0  0  0  0  0  0  0  0  0  0  0
   10.3128   11.0995    2.5933 H   0  0  0  0  0  0  0  0  0  0  0  0
    9.9868   11.0562    4.3404 H   0  0  0  0  0  0  0  0  0  0  0  0
    7.3210   11.5237    4.8851 H   0  0  0  0  0  0  0  0  0  0  0  0
    5.6757   13.3707    4.6419 H   0  0  0  0  0  0  0  0  0  0  0  0
    5.9152   15.0259    2.7882 H   0  0  0  0  0  0  0  0  0  0  0  0
    7.8149   14.8169    1.1837 H   0  0  0  0  0  0  0  0  0  0  0  0
    9.4598   12.9724    1.4334 H   0  0  0  0  0  0  0  0  0  0  0  0
    7.6668    6.9380   -1.6861 H   0  0  0  0  0  0  0  0  0  0  0  0
    5.1508    7.5751   -3.3333 H   0  0  0  0  0  0  0  0  0  0  0  0
    5.9104    5.9738   -3.1852 H   0  0  0  0  0  0  0  0  0  0  0  0
    6.7818    7.3030   -3.9854 H   0  0  0  0  0  0  0  0  0  0  0  0
    6.1447    9.5933   -1.9863 H   0  0  0  0  0  0  0  0  0  0  0  0
    7.7479    9.2208   -2.6631 H   0  0  0  0  0  0  0  0  0  0  0  0
    7.5132    9.3212   -0.8927 H   0  0  0  0  0  0  0  0  0  0  0  0
    7.3734    4.8439   -0.8421 H   0  0  0  0  0  0  0  0  0  0  0  0
    6.6928    2.5042   -0.5302 H   0  0  0  0  0  0  0  0  0  0  0  0
  1  2  1  0
  1 29  1  0
  1 30  1  0
  1 31  1  0
  2  3  1  0
  2 32  1  0
  2 33  1  0
  3  4  1  0
  3 34  1  0
  3 35  1  0
  4  5  1  0
  4 36  1  0
  4 37  1  0
  5  6  2  0
  5 28  1  0
  6  7  1  0
  6 38  1  0
  7  8  2  0
  7 39  1  0
  8  9  1  0
  8 27  1  0
  9 10  1  0
  9 24  1  0
  9 40  1  6
 10 11  1  0
 10 41  1  0
 11 12  1  0
 11 42  1  0
 11 43  1  0
 12 13  2  0
 12 23  1  0
 13 14  1  0
 14 15  2  0
 15 16  1  0
 15 23  1  0
 16 17  1  0
 16 44  1  0
 16 45  1  0
 17 18  2  0
 17 22  1  0
 18 19  1  0
 18 46  1  0
 19 20  2  0
 19 47  1  0
 20 21  1  0
 20 48  1  0
 21 22  2  0
 21 49  1  0
 22 50  1  0
 24 25  1  0
 24 26  1  0
 24 51  1  1
 25 52  1  0
 25 53  1  0
 25 54  1  0
 26 55  1  0
 26 56  1  0
 26 57  1  0
 27 28  2  0
 27 58  1  0
 28 59  1  0
M  END

