
     RDKit          3D

106113  0  0  0  0  0  0  0  0999 V2000
    1.9684    0.8197    3.2349 C   0  0  0  0  0  0  0  0  0  0  0  0
    3.2137    0.7106    2.3898 C   0  0  0  0  0  0  0  0  0  0  0  0
    3.1591    0.7661    0.9940 C   0  0  0  0  0  0  0  0  0  0  0  0
    4.3109    0.6786    0.1975 C   0  0  0  0  0  0  0  0  0  0  0  0
    4.1385    0.7725   -1.3046 C   0  0  0  0  0  0  0  0  0  0  0  0
    5.5834    0.4956    0.8040 C   0  0  0  0  0  0  0  0  0  0  0  0
    6.9050    0.3676   -0.0667 B   0  0  0  0  0  0  0  0  0  0  0  0
    7.2760    1.4675   -1.1482 C   0  0  0  0  0  0  0  0  0  0  0  0
    7.3068    2.8483   -0.8069 C   0  0  0  0  0  0  0  0  0  0  0  0
    7.0071    3.3444    0.5931 C   0  0  0  0  0  0  0  0  0  0  0  0
    7.6406    3.8062   -1.7764 C   0  0  0  0  0  0  0  0  0  0  0  0
    7.9170    3.4586   -3.1015 C   0  0  0  0  0  0  0  0  0  0  0  0
    8.2623    4.4995   -4.1378 C   0  0  0  0  0  0  0  0  0  0  0  0
    7.8652    2.1003   -3.4385 C   0  0  0  0  0  0  0  0  0  0  0  0
    7.5709    1.1080   -2.4963 C   0  0  0  0  0  0  0  0  0  0  0  0
    7.5627   -0.3294   -2.9743 C   0  0  0  0  0  0  0  0  0  0  0  0
    7.7880   -0.9252    0.1399 C   0  0  0  0  0  0  0  0  0  0  0  0
    7.1062   -2.1081    0.3314 C   0  0  0  0  0  0  0  0  0  0  0  0
    7.7379   -3.3954    0.3862 C   0  0  0  0  0  0  0  0  0  0  0  0
    6.9909   -4.5761    0.5523 C   0  0  0  0  0  0  0  0  0  0  0  0
    7.6335   -5.8098    0.6145 C   0  0  0  0  0  0  0  0  0  0  0  0
    9.0239   -5.8924    0.5067 C   0  0  0  0  0  0  0  0  0  0  0  0
    9.8220   -4.7445    0.3305 C   0  0  0  0  0  0  0  0  0  0  0  0
   11.2796   -4.8071    0.2434 C   0  0  0  0  0  0  0  0  0  0  0  0
   12.1444   -6.1245    0.1449 B   0  0  0  0  0  0  0  0  0  0  0  0
   11.6548   -7.3841   -0.6871 C   0  0  0  0  0  0  0  0  0  0  0  0
   11.1998   -7.2503   -2.0285 C   0  0  0  0  0  0  0  0  0  0  0  0
   11.1328   -5.9131   -2.7373 C   0  0  0  0  0  0  0  0  0  0  0  0
   10.8073   -8.3848   -2.7543 C   0  0  0  0  0  0  0  0  0  0  0  0
   10.8133   -9.6658   -2.1963 C   0  0  0  0  0  0  0  0  0  0  0  0
   10.3732  -10.8752   -2.9840 C   0  0  0  0  0  0  0  0  0  0  0  0
   11.2470   -9.7919   -0.8706 C   0  0  0  0  0  0  0  0  0  0  0  0
   11.6784   -8.6919   -0.1198 C   0  0  0  0  0  0  0  0  0  0  0  0
   12.1417   -8.9480    1.3000 C   0  0  0  0  0  0  0  0  0  0  0  0
   13.5646   -6.1236    0.8545 C   0  0  0  0  0  0  0  0  0  0  0  0
   13.6831   -5.8186    2.2376 C   0  0  0  0  0  0  0  0  0  0  0  0
   12.4850   -5.4824    3.1046 C   0  0  0  0  0  0  0  0  0  0  0  0
   14.9415   -5.8375    2.8577 C   0  0  0  0  0  0  0  0  0  0  0  0
   16.1139   -6.1181    2.1511 C   0  0  0  0  0  0  0  0  0  0  0  0
   17.4637   -6.1207    2.8257 C   0  0  0  0  0  0  0  0  0  0  0  0
   15.9949   -6.4026    0.7845 C   0  0  0  0  0  0  0  0  0  0  0  0
   14.7558   -6.4263    0.1336 C   0  0  0  0  0  0  0  0  0  0  0  0
   14.7396   -6.7656   -1.3427 C   0  0  0  0  0  0  0  0  0  0  0  0
   11.9676   -3.6149    0.1642 C   0  0  0  0  0  0  0  0  0  0  0  0
   11.3347   -2.3292    0.0891 C   0  0  0  0  0  0  0  0  0  0  0  0
   12.0849   -1.1439   -0.0198 C   0  0  0  0  0  0  0  0  0  0  0  0
   11.4424    0.0902   -0.0775 C   0  0  0  0  0  0  0  0  0  0  0  0
   10.0483    0.1676   -0.0345 C   0  0  0  0  0  0  0  0  0  0  0  0
    9.2461   -0.9867    0.0659 C   0  0  0  0  0  0  0  0  0  0  0  0
    9.9075   -2.2581    0.1377 C   0  0  0  0  0  0  0  0  0  0  0  0
    9.1616   -3.4715    0.2779 C   0  0  0  0  0  0  0  0  0  0  0  0
    5.6418    0.4248    2.2254 C   0  0  0  0  0  0  0  0  0  0  0  0
    6.9466    0.2360    2.9746 C   0  0  0  0  0  0  0  0  0  0  0  0
    4.4717    0.5486    2.9836 C   0  0  0  0  0  0  0  0  0  0  0  0
    1.0725    0.9855    2.6184 H   0  0  0  0  0  0  0  0  0  0  0  0
    2.0432    1.6529    3.9537 H   0  0  0  0  0  0  0  0  0  0  0  0
    1.8048   -0.0973    3.8263 H   0  0  0  0  0  0  0  0  0  0  0  0
    2.1878    0.8892    0.5048 H   0  0  0  0  0  0  0  0  0  0  0  0
    3.0733    0.7486   -1.5784 H   0  0  0  0  0  0  0  0  0  0  0  0
    4.6330   -0.0561   -1.8350 H   0  0  0  0  0  0  0  0  0  0  0  0
    4.5684    1.7037   -1.7050 H   0  0  0  0  0  0  0  0  0  0  0  0
    7.5817    2.8060    1.3627 H   0  0  0  0  0  0  0  0  0  0  0  0
    5.9442    3.2178    0.8500 H   0  0  0  0  0  0  0  0  0  0  0  0
    7.2518    4.4126    0.6888 H   0  0  0  0  0  0  0  0  0  0  0  0
    7.6771    4.8605   -1.4849 H   0  0  0  0  0  0  0  0  0  0  0  0
    8.2152    5.5172   -3.7228 H   0  0  0  0  0  0  0  0  0  0  0  0
    7.5737    4.4524   -4.9980 H   0  0  0  0  0  0  0  0  0  0  0  0
    9.2798    4.3451   -4.5356 H   0  0  0  0  0  0  0  0  0  0  0  0
    8.0675    1.8013   -4.4721 H   0  0  0  0  0  0  0  0  0  0  0  0
    8.4441   -0.8799   -2.6095 H   0  0  0  0  0  0  0  0  0  0  0  0
    6.6800   -0.8875   -2.6283 H   0  0  0  0  0  0  0  0  0  0  0  0
    7.5756   -0.3742   -4.0734 H   0  0  0  0  0  0  0  0  0  0  0  0
    6.0171   -2.0863    0.4282 H   0  0  0  0  0  0  0  0  0  0  0  0
    5.9027   -4.5115    0.6358 H   0  0  0  0  0  0  0  0  0  0  0  0
    7.0495   -6.7238    0.7490 H   0  0  0  0  0  0  0  0  0  0  0  0
    9.5019   -6.8703    0.5569 H   0  0  0  0  0  0  0  0  0  0  0  0
   12.0416   -5.3097   -2.5954 H   0  0  0  0  0  0  0  0  0  0  0  0
   10.2918   -5.3041   -2.3697 H   0  0  0  0  0  0  0  0  0  0  0  0
   10.9916   -6.0531   -3.8193 H   0  0  0  0  0  0  0  0  0  0  0  0
   10.4809   -8.2589   -3.7914 H   0  0  0  0  0  0  0  0  0  0  0  0
   10.0661  -10.6050   -4.0052 H   0  0  0  0  0  0  0  0  0  0  0  0
    9.5214  -11.3809   -2.4984 H   0  0  0  0  0  0  0  0  0  0  0  0
   11.1836  -11.6196   -3.0609 H   0  0  0  0  0  0  0  0  0  0  0  0
   11.2572  -10.7833   -0.4061 H   0  0  0  0  0  0  0  0  0  0  0  0
   11.9212   -9.9827    1.6015 H   0  0  0  0  0  0  0  0  0  0  0  0
   11.6522   -8.2825    2.0280 H   0  0  0  0  0  0  0  0  0  0  0  0
   13.2255   -8.7889    1.4093 H   0  0  0  0  0  0  0  0  0  0  0  0
   11.5850   -6.0543    2.8370 H   0  0  0  0  0  0  0  0  0  0  0  0
   12.2140   -4.4178    3.0175 H   0  0  0  0  0  0  0  0  0  0  0  0
   12.7031   -5.6823    4.1646 H   0  0  0  0  0  0  0  0  0  0  0  0
   15.0054   -5.6222    3.9291 H   0  0  0  0  0  0  0  0  0  0  0  0
   17.3851   -5.8636    3.8925 H   0  0  0  0  0  0  0  0  0  0  0  0
   18.1483   -5.3962    2.3533 H   0  0  0  0  0  0  0  0  0  0  0  0
   17.9466   -7.1099    2.7519 H   0  0  0  0  0  0  0  0  0  0  0  0
   16.8985   -6.6205    0.2060 H   0  0  0  0  0  0  0  0  0  0  0  0
   15.7623   -6.8054   -1.7460 H   0  0  0  0  0  0  0  0  0  0  0  0
   14.1805   -6.0253   -1.9359 H   0  0  0  0  0  0  0  0  0  0  0  0
   14.2655   -7.7414   -1.5302 H   0  0  0  0  0  0  0  0  0  0  0  0
   13.0608   -3.6307    0.1349 H   0  0  0  0  0  0  0  0  0  0  0  0
   13.1760   -1.2044   -0.0534 H   0  0  0  0  0  0  0  0  0  0  0  0
   12.0298    1.0085   -0.1566 H   0  0  0  0  0  0  0  0  0  0  0  0
    9.5702    1.1456   -0.0831 H   0  0  0  0  0  0  0  0  0  0  0  0
    7.7869    0.7783    2.5171 H   0  0  0  0  0  0  0  0  0  0  0  0
    7.2413   -0.8252    3.0055 H   0  0  0  0  0  0  0  0  0  0  0  0
    6.8537    0.5846    4.0143 H   0  0  0  0  0  0  0  0  0  0  0  0
    4.5440    0.5151    4.0758 H   0  0  0  0  0  0  0  0  0  0  0  0
  1  2  1  0
  1 55  1  0
  1 56  1  0
  1 57  1  0
  2  3  2  0
  2 54  1  0
  3  4  1  0
  3 58  1  0
  4  5  1  0
  4  6  2  0
  5 59  1  0
  5 60  1  0
  5 61  1  0
  6  7  1  0
  6 52  1  0
  7  8  1  0
  7 17  1  0
  8  9  2  0
  8 15  1  0
  9 10  1  0
  9 11  1  0
 10 62  1  0
 10 63  1  0
 10 64  1  0
 11 12  2  0
 11 65  1  0
 12 13  1  0
 12 14  1  0
 13 66  1  0
 13 67  1  0
 13 68  1  0
 14 15  2  0
 14 69  1  0
 15 16  1  0
 16 70  1  0
 16 71  1  0
 16 72  1  0
 17 18  2  0
 17 49  1  0
 18 19  1  0
 18 73  1  0
 19 20  2  0
 19 51  1  0
 20 21  1  0
 20 74  1  0
 21 22  2  0
 21 75  1  0
 22 23  1  0
 22 76  1  0
 23 24  1  0
 23 51  2  0
 24 25  1  0
 24 44  2  0
 25 26  1  0
 25 35  1  0
 26 27  2  0
 26 33  1  0
 27 28  1  0
 27 29  1  0
 28 77  1  0
 28 78  1  0
 28 79  1  0
 29 30  2  0
 29 80  1  0
 30 31  1  0
 30 32  1  0
 31 81  1  0
 31 82  1  0
 31 83  1  0
 32 33  2  0
 32 84  1  0
 33 34  1  0
 34 85  1  0
 34 86  1  0
 34 87  1  0
 35 36  2  0
 35 42  1  0
 36 37  1  0
 36 38  1  0
 37 88  1  0
 37 89  1  0
 37 90  1  0
 38 39  2  0
 38 91  1  0
 39 40  1  0
 39 41  1  0
 40 92  1  0
 40 93  1  0
 40 94  1  0
 41 42  2  0
 41 95  1  0
 42 43  1  0
 43 96  1  0
 43 97  1  0
 43 98  1  0
 44 45  1  0
 44 99  1  0
 45 46  1  0
 45 50  2  0
 46 47  2  0
 46100  1  0
 47 48  1  0
 47101  1  0
 48 49  2  0
 48102  1  0
 49 50  1  0
 50 51  1  0
 52 53  1  0
 52 54  2  0
 53103  1  0
 53104  1  0
 53105  1  0
 54106  1  0
M  END

