
     RDKit          3D

 39 40  0  0  0  0  0  0  0  0999 V2000
    1.9869    2.7958    0.5692 C   0  0  0  0  0  0  0  0  0  0  0  0
    2.2530    1.9529   -0.5293 O   0  0  0  0  0  0  0  0  0  0  0  0
    3.4757    1.9614   -1.1106 C   0  0  0  0  0  0  0  0  0  0  0  0
    4.4981    2.8620   -0.7753 C   0  0  0  0  0  0  0  0  0  0  0  0
    5.7259    2.7982   -1.4413 C   0  0  0  0  0  0  0  0  0  0  0  0
    5.9466    1.8419   -2.4355 C   0  0  0  0  0  0  0  0  0  0  0  0
    4.9283    0.9421   -2.7592 C   0  0  0  0  0  0  0  0  0  0  0  0
    3.6838    0.9853   -2.1178 C   0  0  0  0  0  0  0  0  0  0  0  0
    2.5976   -0.0047   -2.4438 C   0  0  0  0  0  0  0  0  0  0  0  0
    2.6729   -1.2690   -1.5418 C   0  0  0  0  0  0  0  0  0  0  0  0
    2.1995   -1.0198   -0.3795 O   0  0  0  0  0  0  0  0  0  0  0  0
    3.2224   -2.5202   -1.8945 C   0  0  0  0  0  0  0  0  0  0  0  0
    3.2489   -3.5332   -0.8588 C   0  0  0  0  0  0  0  0  0  0  0  0
    2.7661   -3.1830    0.3835 O   0  0  0  0  0  0  0  0  0  0  0  0
    3.7372   -2.8434    1.3620 C   0  0  0  0  0  0  0  0  0  0  0  0
    3.7022   -4.8217   -1.0796 C   0  0  0  0  0  0  0  0  0  0  0  0
    4.1819   -5.1899   -2.3444 C   0  0  0  0  0  0  0  0  0  0  0  0
    4.2029   -4.2341   -3.3804 C   0  0  0  0  0  0  0  0  0  0  0  0
    3.7467   -2.9383   -3.1835 C   0  0  0  0  0  0  0  0  0  0  0  0
    3.7682   -1.9952   -4.1744 O   0  0  0  0  0  0  0  0  0  0  0  0
    4.1833   -2.3557   -5.4726 C   0  0  0  0  0  0  0  0  0  0  0  0
    0.9665    2.5622    0.9002 H   0  0  0  0  0  0  0  0  0  0  0  0
    2.0387    3.8633    0.2890 H   0  0  0  0  0  0  0  0  0  0  0  0
    2.6869    2.6099    1.4027 H   0  0  0  0  0  0  0  0  0  0  0  0
    4.3443    3.6148   -0.0022 H   0  0  0  0  0  0  0  0  0  0  0  0
    6.5149    3.5063   -1.1746 H   0  0  0  0  0  0  0  0  0  0  0  0
    6.9077    1.7938   -2.9523 H   0  0  0  0  0  0  0  0  0  0  0  0
    5.0893    0.1758   -3.5206 H   0  0  0  0  0  0  0  0  0  0  0  0
    2.6792   -0.3472   -3.4775 H   0  0  0  0  0  0  0  0  0  0  0  0
    1.6103    0.4426   -2.2709 H   0  0  0  0  0  0  0  0  0  0  0  0
    3.1905   -2.5475    2.2679 H   0  0  0  0  0  0  0  0  0  0  0  0
    4.3688   -2.0035    1.0273 H   0  0  0  0  0  0  0  0  0  0  0  0
    4.3824   -3.7105    1.5901 H   0  0  0  0  0  0  0  0  0  0  0  0
    3.6688   -5.5372   -0.2552 H   0  0  0  0  0  0  0  0  0  0  0  0
    4.5348   -6.2051   -2.5317 H   0  0  0  0  0  0  0  0  0  0  0  0
    4.5863   -4.5284   -4.3568 H   0  0  0  0  0  0  0  0  0  0  0  0
    4.0823   -1.4552   -6.0939 H   0  0  0  0  0  0  0  0  0  0  0  0
    3.5524   -3.1582   -5.8945 H   0  0  0  0  0  0  0  0  0  0  0  0
    5.2369   -2.6872   -5.4901 H   0  0  0  0  0  0  0  0  0  0  0  0
  1  2  1  0
  1 22  1  0
  1 23  1  0
  1 24  1  0
  2  3  1  0
  3  4  2  0
  3  8  1  0
  4  5  1  0
  4 25  1  0
  5  6  2  0
  5 26  1  0
  6  7  1  0
  6 27  1  0
  7  8  2  0
  7 28  1  0
  8  9  1  0
  9 10  1  0
  9 29  1  0
  9 30  1  0
 10 11  2  0
 10 12  1  0
 12 13  2  0
 12 19  1  0
 13 14  1  0
 13 16  1  0
 14 15  1  0
 15 31  1  0
 15 32  1  0
 15 33  1  0
 16 17  2  0
 16 34  1  0
 17 18  1  0
 17 35  1  0
 18 19  2  0
 18 36  1  0
 19 20  1  0
 20 21  1  0
 21 37  1  0
 21 38  1  0
 21 39  1  0
M  END

