
     RDKit          3D

242259  0  0  0  0  0  0  0  0999 V2000
   -5.6628    2.4969   -7.5773 C   0  0  0  0  0  0  0  0  0  0  0  0
   -6.1765    3.7132   -6.7719 C   0  0  1  0  0  0  0  0  0  0  0  0
   -6.7795    4.7556   -7.7425 C   0  0  0  0  0  0  0  0  0  0  0  0
   -7.2946    3.2291   -5.8312 C   0  0  0  0  0  0  0  0  0  0  0  0
   -5.0045    4.3524   -6.0017 C   0  0  0  0  0  0  0  0  0  0  0  0
   -3.8835    4.8403   -6.7157 C   0  0  0  0  0  0  0  0  0  0  0  0
   -2.7883    5.4376   -6.0942 C   0  0  0  0  0  0  0  0  0  0  0  0
   -2.8144    5.5678   -4.7007 C   0  0  0  0  0  0  0  0  0  0  0  0
   -3.9051    5.0659   -3.9528 C   0  0  0  0  0  0  0  0  0  0  0  0
   -4.9903    4.4684   -4.6041 C   0  0  0  0  0  0  0  0  0  0  0  0
   -3.5941    5.2896   -2.5496 C   0  0  0  0  0  0  0  0  0  0  0  0
   -4.2969    5.0381   -1.3658 C   0  0  0  0  0  0  0  0  0  0  0  0
   -3.7572    5.4075   -0.1249 C   0  0  0  0  0  0  0  0  0  0  0  0
   -4.4866    5.1520    1.2086 C   0  0  1  0  0  0  0  0  0  0  0  0
   -3.6098    4.2508    2.1091 C   0  0  0  0  0  0  0  0  0  0  0  0
   -4.7418    6.5003    1.9224 C   0  0  0  0  0  0  0  0  0  0  0  0
   -5.8422    4.4526    1.0038 C   0  0  0  0  0  0  0  0  0  0  0  0
   -2.4965    6.0517   -0.1194 C   0  0  0  0  0  0  0  0  0  0  0  0
   -1.7751    6.3170   -1.2822 C   0  0  0  0  0  0  0  0  0  0  0  0
   -2.3246    5.9130   -2.5045 C   0  0  0  0  0  0  0  0  0  0  0  0
   -1.8482    6.0856   -3.8170 N   0  0  0  0  0  0  0  0  0  0  0  0
   -0.6279    6.6687   -4.1784 C   0  0  0  0  0  0  0  0  0  0  0  0
    0.5636    6.3303   -3.4992 C   0  0  0  0  0  0  0  0  0  0  0  0
    1.7712    6.9039   -3.8548 C   0  0  0  0  0  0  0  0  0  0  0  0
    1.8520    7.8546   -4.9107 C   0  0  0  0  0  0  0  0  0  0  0  0
    3.0525    8.4208   -5.3061 N   0  0  0  0  0  0  0  0  0  0  0  0
    3.1852    8.9283   -6.6597 C   0  0  0  0  0  0  0  0  0  0  0  0
    3.1484   10.3167   -6.9143 C   0  0  0  0  0  0  0  0  0  0  0  0
    3.2778   10.7994   -8.2032 C   0  0  0  0  0  0  0  0  0  0  0  0
    3.4594    9.9342   -9.3414 C   0  0  0  0  0  0  0  0  0  0  0  0
    3.5965   10.4395  -10.6869 C   0  0  0  0  0  0  0  0  0  0  0  0
    3.5863   11.8434  -10.9887 C   0  0  0  0  0  0  0  0  0  0  0  0
    3.7267   12.3268  -12.2782 C   0  0  0  0  0  0  0  0  0  0  0  0
    3.8732   11.4507  -13.3756 C   0  0  0  0  0  0  0  0  0  0  0  0
    4.0124   11.9529  -14.7119 N   0  0  0  0  0  0  0  0  0  0  0  0
    5.1782   11.6412  -15.4391 C   0  0  0  0  0  0  0  0  0  0  0  0
    5.1475   11.4224  -16.8334 C   0  0  0  0  0  0  0  0  0  0  0  0
    6.3037   11.0821  -17.5314 C   0  0  0  0  0  0  0  0  0  0  0  0
    7.5314   10.9513  -16.8656 C   0  0  0  0  0  0  0  0  0  0  0  0
    8.7116   10.6041  -17.5814 N   0  0  0  0  0  0  0  0  0  0  0  0
    9.2900   11.3413  -18.6153 C   0  0  0  0  0  0  0  0  0  0  0  0
    8.9023   12.5657  -19.1739 C   0  0  0  0  0  0  0  0  0  0  0  0
    9.6823   13.0928  -20.2000 C   0  0  0  0  0  0  0  0  0  0  0  0
   10.8430   12.4474  -20.6983 C   0  0  0  0  0  0  0  0  0  0  0  0
   11.6445   13.1059  -21.8404 C   0  0  1  0  0  0  0  0  0  0  0  0
   12.1706   14.4839  -21.3751 C   0  0  0  0  0  0  0  0  0  0  0  0
   12.8525   12.2540  -22.2692 C   0  0  0  0  0  0  0  0  0  0  0  0
   10.7323   13.2961  -23.0745 C   0  0  0  0  0  0  0  0  0  0  0  0
   11.2144   11.2299  -20.1173 C   0  0  0  0  0  0  0  0  0  0  0  0
   10.4516   10.6721  -19.0788 C   0  0  0  0  0  0  0  0  0  0  0  0
   10.5814    9.4687  -18.2805 C   0  0  0  0  0  0  0  0  0  0  0  0
   11.5080    8.4140  -18.2658 C   0  0  0  0  0  0  0  0  0  0  0  0
   11.3658    7.3536  -17.3641 C   0  0  0  0  0  0  0  0  0  0  0  0
   12.3575    6.1735  -17.3020 C   0  0  1  0  0  0  0  0  0  0  0  0
   12.9953    6.1067  -15.8947 C   0  0  0  0  0  0  0  0  0  0  0  0
   11.6098    4.8505  -17.5883 C   0  0  0  0  0  0  0  0  0  0  0  0
   13.4919    6.3134  -18.3330 C   0  0  0  0  0  0  0  0  0  0  0  0
   10.2574    7.3810  -16.4792 C   0  0  0  0  0  0  0  0  0  0  0  0
    9.3207    8.4115  -16.4675 C   0  0  0  0  0  0  0  0  0  0  0  0
    9.4917    9.4663  -17.3725 C   0  0  0  0  0  0  0  0  0  0  0  0
    7.5697   11.1614  -15.4790 C   0  0  0  0  0  0  0  0  0  0  0  0
    6.4143   11.4920  -14.7755 C   0  0  0  0  0  0  0  0  0  0  0  0
    2.9826   12.7444  -15.2561 C   0  0  0  0  0  0  0  0  0  0  0  0
    3.2533   13.8055  -16.1479 C   0  0  0  0  0  0  0  0  0  0  0  0
    2.2243   14.5887  -16.6645 C   0  0  0  0  0  0  0  0  0  0  0  0
    0.8922   14.3645  -16.2858 C   0  0  0  0  0  0  0  0  0  0  0  0
   -0.1555   15.1761  -16.8050 N   0  0  0  0  0  0  0  0  0  0  0  0
   -1.2305   14.7322  -17.5756 C   0  0  0  0  0  0  0  0  0  0  0  0
   -1.5459   13.4435  -18.0237 C   0  0  0  0  0  0  0  0  0  0  0  0
   -2.6904   13.2824  -18.8009 C   0  0  0  0  0  0  0  0  0  0  0  0
   -3.5409   14.3605  -19.1572 C   0  0  0  0  0  0  0  0  0  0  0  0
   -4.7903   14.0885  -20.0203 C   0  0  1  0  0  0  0  0  0  0  0  0
   -5.7234   13.0986  -19.2845 C   0  0  0  0  0  0  0  0  0  0  0  0
   -5.5887   15.3730  -20.3068 C   0  0  0  0  0  0  0  0  0  0  0  0
   -4.3629   13.4778  -21.3753 C   0  0  0  0  0  0  0  0  0  0  0  0
   -3.1985   15.6394  -18.7046 C   0  0  0  0  0  0  0  0  0  0  0  0
   -2.0516   15.8365  -17.9194 C   0  0  0  0  0  0  0  0  0  0  0  0
   -1.4386   17.0083  -17.3247 C   0  0  0  0  0  0  0  0  0  0  0  0
   -1.7771   18.3707  -17.3040 C   0  0  0  0  0  0  0  0  0  0  0  0
   -0.9801   19.2922  -16.6160 C   0  0  0  0  0  0  0  0  0  0  0  0
   -1.3027   20.7998  -16.5657 C   0  0  1  0  0  0  0  0  0  0  0  0
   -1.5164   21.2367  -15.0977 C   0  0  0  0  0  0  0  0  0  0  0  0
   -0.1280   21.6017  -17.1728 C   0  0  0  0  0  0  0  0  0  0  0  0
   -2.5764   21.1486  -17.3567 C   0  0  0  0  0  0  0  0  0  0  0  0
    0.1671   18.8015  -15.9410 C   0  0  0  0  0  0  0  0  0  0  0  0
    0.5319   17.4574  -15.9430 C   0  0  0  0  0  0  0  0  0  0  0  0
   -0.2764   16.5572  -16.6482 C   0  0  0  0  0  0  0  0  0  0  0  0
    0.6168   13.3284  -15.3808 C   0  0  0  0  0  0  0  0  0  0  0  0
    1.6394   12.5256  -14.8822 C   0  0  0  0  0  0  0  0  0  0  0  0
    3.8782   10.0632  -13.1137 C   0  0  0  0  0  0  0  0  0  0  0  0
    3.7529    9.5765  -11.8239 C   0  0  0  0  0  0  0  0  0  0  0  0
    3.4947    8.5281   -9.0344 C   0  0  0  0  0  0  0  0  0  0  0  0
    3.3620    8.0427   -7.7464 C   0  0  0  0  0  0  0  0  0  0  0  0
    4.1589    8.5298   -4.4489 C   0  0  0  0  0  0  0  0  0  0  0  0
    5.4699    8.4651   -4.9759 C   0  0  0  0  0  0  0  0  0  0  0  0
    6.5744    8.5926   -4.1486 C   0  0  0  0  0  0  0  0  0  0  0  0
    6.4224    8.8239   -2.7650 C   0  0  0  0  0  0  0  0  0  0  0  0
    7.5443    8.9624   -1.9311 N   0  0  0  0  0  0  0  0  0  0  0  0
    8.6850    9.7395   -2.2000 C   0  0  0  0  0  0  0  0  0  0  0  0
    8.9647   10.5965   -3.2710 C   0  0  0  0  0  0  0  0  0  0  0  0
   10.1793   11.2795   -3.2628 C   0  0  0  0  0  0  0  0  0  0  0  0
   11.1305   11.1518   -2.2210 C   0  0  0  0  0  0  0  0  0  0  0  0
   12.4528   11.9402   -2.2985 C   0  0  1  0  0  0  0  0  0  0  0  0
   12.1483   13.4557   -2.3481 C   0  0  0  0  0  0  0  0  0  0  0  0
   13.3595   11.6718   -1.0838 C   0  0  0  0  0  0  0  0  0  0  0  0
   13.2233   11.5288   -3.5749 C   0  0  0  0  0  0  0  0  0  0  0  0
   10.8135   10.3081   -1.1485 C   0  0  0  0  0  0  0  0  0  0  0  0
    9.5999    9.6078   -1.1286 C   0  0  0  0  0  0  0  0  0  0  0  0
    8.9914    8.7086   -0.1630 C   0  0  0  0  0  0  0  0  0  0  0  0
    9.4250    8.1900    1.0642 C   0  0  0  0  0  0  0  0  0  0  0  0
    8.6228    7.2928    1.7817 C   0  0  0  0  0  0  0  0  0  0  0  0
    9.0474    6.6944    3.1376 C   0  0  1  0  0  0  0  0  0  0  0  0
    8.0114    7.0824    4.2184 C   0  0  0  0  0  0  0  0  0  0  0  0
    9.1179    5.1536    3.0234 C   0  0  0  0  0  0  0  0  0  0  0  0
   10.4271    7.2045    3.5914 C   0  0  0  0  0  0  0  0  0  0  0  0
    7.3774    6.9251    1.2166 C   0  0  0  0  0  0  0  0  0  0  0  0
    6.9196    7.4233   -0.0019 C   0  0  0  0  0  0  0  0  0  0  0  0
    7.7303    8.3358   -0.6873 C   0  0  0  0  0  0  0  0  0  0  0  0
    5.1186    8.9290   -2.2416 C   0  0  0  0  0  0  0  0  0  0  0  0
    4.0101    8.7827   -3.0641 C   0  0  0  0  0  0  0  0  0  0  0  0
    0.6531    8.1644   -5.6096 C   0  0  0  0  0  0  0  0  0  0  0  0
   -0.5521    7.5946   -5.2436 C   0  0  0  0  0  0  0  0  0  0  0  0
   -6.4908    2.0293   -8.1345 H   0  0  0  0  0  0  0  0  0  0  0  0
   -5.2278    1.7351   -6.9109 H   0  0  0  0  0  0  0  0  0  0  0  0
   -4.8915    2.7821   -8.3086 H   0  0  0  0  0  0  0  0  0  0  0  0
   -7.6168    4.3140   -8.3070 H   0  0  0  0  0  0  0  0  0  0  0  0
   -6.0393    5.1151   -8.4733 H   0  0  0  0  0  0  0  0  0  0  0  0
   -7.1625    5.6311   -7.1946 H   0  0  0  0  0  0  0  0  0  0  0  0
   -8.1102    2.7849   -6.4224 H   0  0  0  0  0  0  0  0  0  0  0  0
   -7.7262    4.0552   -5.2446 H   0  0  0  0  0  0  0  0  0  0  0  0
   -6.9390    2.4577   -5.1300 H   0  0  0  0  0  0  0  0  0  0  0  0
   -3.8585    4.7462   -7.8031 H   0  0  0  0  0  0  0  0  0  0  0  0
   -1.9401    5.7751   -6.6898 H   0  0  0  0  0  0  0  0  0  0  0  0
   -5.8179    4.0885   -4.0057 H   0  0  0  0  0  0  0  0  0  0  0  0
   -5.2743    4.5599   -1.4274 H   0  0  0  0  0  0  0  0  0  0  0  0
   -2.6351    4.7120    2.3299 H   0  0  0  0  0  0  0  0  0  0  0  0
   -3.4195    3.2773    1.6297 H   0  0  0  0  0  0  0  0  0  0  0  0
   -4.1140    4.0632    3.0711 H   0  0  0  0  0  0  0  0  0  0  0  0
   -3.8049    7.0327    2.1465 H   0  0  0  0  0  0  0  0  0  0  0  0
   -5.2661    6.3354    2.8778 H   0  0  0  0  0  0  0  0  0  0  0  0
   -5.3647    7.1643    1.3025 H   0  0  0  0  0  0  0  0  0  0  0  0
   -5.7293    3.4700    0.5195 H   0  0  0  0  0  0  0  0  0  0  0  0
   -6.5314    5.0591    0.3956 H   0  0  0  0  0  0  0  0  0  0  0  0
   -6.3254    4.2852    1.9789 H   0  0  0  0  0  0  0  0  0  0  0  0
   -2.0605    6.3680    0.8303 H   0  0  0  0  0  0  0  0  0  0  0  0
   -0.8196    6.8387   -1.2257 H   0  0  0  0  0  0  0  0  0  0  0  0
    0.5407    5.5618   -2.7254 H   0  0  0  0  0  0  0  0  0  0  0  0
    2.6822    6.5730   -3.3563 H   0  0  0  0  0  0  0  0  0  0  0  0
    3.0147   11.0163   -6.0841 H   0  0  0  0  0  0  0  0  0  0  0  0
    3.2410   11.8794   -8.3460 H   0  0  0  0  0  0  0  0  0  0  0  0
    3.4771   12.5719  -10.1843 H   0  0  0  0  0  0  0  0  0  0  0  0
    3.7214   13.4058  -12.4547 H   0  0  0  0  0  0  0  0  0  0  0  0
    4.2011   11.4990  -17.3708 H   0  0  0  0  0  0  0  0  0  0  0  0
    6.2534   10.8934  -18.6062 H   0  0  0  0  0  0  0  0  0  0  0  0
    8.0177   13.0958  -18.8170 H   0  0  0  0  0  0  0  0  0  0  0  0
    9.3764   14.0483  -20.6324 H   0  0  0  0  0  0  0  0  0  0  0  0
   12.8340   14.3764  -20.5021 H   0  0  0  0  0  0  0  0  0  0  0  0
   11.3513   15.1611  -21.0891 H   0  0  0  0  0  0  0  0  0  0  0  0
   12.7428   14.9738  -22.1808 H   0  0  0  0  0  0  0  0  0  0  0  0
   13.5677   12.1102  -21.4443 H   0  0  0  0  0  0  0  0  0  0  0  0
   13.3912   12.7546  -23.0896 H   0  0  0  0  0  0  0  0  0  0  0  0
   12.5454   11.2607  -22.6324 H   0  0  0  0  0  0  0  0  0  0  0  0
    9.8669   13.9391  -22.8524 H   0  0  0  0  0  0  0  0  0  0  0  0
   10.3454   12.3282  -23.4312 H   0  0  0  0  0  0  0  0  0  0  0  0
   11.2916   13.7656  -23.9011 H   0  0  0  0  0  0  0  0  0  0  0  0
   12.1025   10.6974  -20.4585 H   0  0  0  0  0  0  0  0  0  0  0  0
   12.3381    8.4381  -18.9723 H   0  0  0  0  0  0  0  0  0  0  0  0
   12.2391    5.9648  -15.1074 H   0  0  0  0  0  0  0  0  0  0  0  0
   13.5431    7.0351  -15.6673 H   0  0  0  0  0  0  0  0  0  0  0  0
   13.7063    5.2658  -15.8299 H   0  0  0  0  0  0  0  0  0  0  0  0
   10.8062    4.6671  -16.8590 H   0  0  0  0  0  0  0  0  0  0  0  0
   12.3041    3.9946  -17.5420 H   0  0  0  0  0  0  0  0  0  0  0  0
   11.1531    4.8655  -18.5908 H   0  0  0  0  0  0  0  0  0  0  0  0
   14.0854    7.2263  -18.1686 H   0  0  0  0  0  0  0  0  0  0  0  0
   13.1079    6.3367  -19.3649 H   0  0  0  0  0  0  0  0  0  0  0  0
   14.1777    5.4546  -18.2550 H   0  0  0  0  0  0  0  0  0  0  0  0
   10.1194    6.5613  -15.7700 H   0  0  0  0  0  0  0  0  0  0  0  0
    8.4796    8.3926  -15.7724 H   0  0  0  0  0  0  0  0  0  0  0  0
    8.5214   11.0761  -14.9499 H   0  0  0  0  0  0  0  0  0  0  0  0
    6.4592   11.6470  -13.6969 H   0  0  0  0  0  0  0  0  0  0  0  0
    4.2833   14.0159  -16.4394 H   0  0  0  0  0  0  0  0  0  0  0  0
    2.4545   15.3945  -17.3651 H   0  0  0  0  0  0  0  0  0  0  0  0
   -0.9155   12.5880  -17.7755 H   0  0  0  0  0  0  0  0  0  0  0  0
   -2.9319   12.2744  -19.1465 H   0  0  0  0  0  0  0  0  0  0  0  0
   -6.0511   13.5119  -18.3173 H   0  0  0  0  0  0  0  0  0  0  0  0
   -5.2259   12.1373  -19.0843 H   0  0  0  0  0  0  0  0  0  0  0  0
   -6.6220   12.8892  -19.8890 H   0  0  0  0  0  0  0  0  0  0  0  0
   -5.9498   15.8467  -19.3805 H   0  0  0  0  0  0  0  0  0  0  0  0
   -6.4705   15.1366  -20.9235 H   0  0  0  0  0  0  0  0  0  0  0  0
   -4.9890   16.1142  -20.8580 H   0  0  0  0  0  0  0  0  0  0  0  0
   -3.8187   12.5301  -21.2450 H   0  0  0  0  0  0  0  0  0  0  0  0
   -3.7040   14.1673  -21.9269 H   0  0  0  0  0  0  0  0  0  0  0  0
   -5.2454   13.2724  -22.0042 H   0  0  0  0  0  0  0  0  0  0  0  0
   -3.8143   16.5035  -18.9552 H   0  0  0  0  0  0  0  0  0  0  0  0
   -2.6740   18.6941  -17.8328 H   0  0  0  0  0  0  0  0  0  0  0  0
   -0.6238   21.0530  -14.4806 H   0  0  0  0  0  0  0  0  0  0  0  0
   -2.3556   20.6871  -14.6423 H   0  0  0  0  0  0  0  0  0  0  0  0
   -1.7436   22.3147  -15.0423 H   0  0  0  0  0  0  0  0  0  0  0  0
    0.8122   21.4301  -16.6268 H   0  0  0  0  0  0  0  0  0  0  0  0
   -0.3390   22.6839  -17.1412 H   0  0  0  0  0  0  0  0  0  0  0  0
    0.0402   21.3175  -18.2239 H   0  0  0  0  0  0  0  0  0  0  0  0
   -3.4631   20.6335  -16.9550 H   0  0  0  0  0  0  0  0  0  0  0  0
   -2.4827   20.8866  -18.4223 H   0  0  0  0  0  0  0  0  0  0  0  0
   -2.7684   22.2318  -17.2982 H   0  0  0  0  0  0  0  0  0  0  0  0
    0.8017   19.4995  -15.3896 H   0  0  0  0  0  0  0  0  0  0  0  0
    1.4209   17.1198  -15.4076 H   0  0  0  0  0  0  0  0  0  0  0  0
   -0.4144   13.1509  -15.0673 H   0  0  0  0  0  0  0  0  0  0  0  0
    1.4085   11.7246  -14.1791 H   0  0  0  0  0  0  0  0  0  0  0  0
    3.9857    9.3641  -13.9474 H   0  0  0  0  0  0  0  0  0  0  0  0
    3.7641    8.4943  -11.6880 H   0  0  0  0  0  0  0  0  0  0  0  0
    3.6296    7.8032   -9.8375 H   0  0  0  0  0  0  0  0  0  0  0  0
    3.3949    6.9640   -7.5676 H   0  0  0  0  0  0  0  0  0  0  0  0
    5.6034    8.2895   -6.0428 H   0  0  0  0  0  0  0  0  0  0  0  0
    7.5749    8.4861   -4.5695 H   0  0  0  0  0  0  0  0  0  0  0  0
    8.2595   10.7458   -4.0891 H   0  0  0  0  0  0  0  0  0  0  0  0
   10.3908   11.9438   -4.1032 H   0  0  0  0  0  0  0  0  0  0  0  0
   11.6056   13.7797   -1.4458 H   0  0  0  0  0  0  0  0  0  0  0  0
   11.5356   13.7249   -3.2218 H   0  0  0  0  0  0  0  0  0  0  0  0
   13.0849   14.0340   -2.4083 H   0  0  0  0  0  0  0  0  0  0  0  0
   12.8827   11.9749   -0.1385 H   0  0  0  0  0  0  0  0  0  0  0  0
   14.2926   12.2485   -1.1809 H   0  0  0  0  0  0  0  0  0  0  0  0
   13.6361   10.6087   -1.0040 H   0  0  0  0  0  0  0  0  0  0  0  0
   12.6480   11.7377   -4.4896 H   0  0  0  0  0  0  0  0  0  0  0  0
   13.4583   10.4526   -3.5651 H   0  0  0  0  0  0  0  0  0  0  0  0
   14.1728   12.0843   -3.6459 H   0  0  0  0  0  0  0  0  0  0  0  0
   11.5009   10.1886   -0.3112 H   0  0  0  0  0  0  0  0  0  0  0  0
   10.4006    8.4919    1.4447 H   0  0  0  0  0  0  0  0  0  0  0  0
    7.0044    6.7087    3.9773 H   0  0  0  0  0  0  0  0  0  0  0  0
    7.9453    8.1766    4.3279 H   0  0  0  0  0  0  0  0  0  0  0  0
    8.2974    6.6590    5.1954 H   0  0  0  0  0  0  0  0  0  0  0  0
    8.1480    4.7155    2.7427 H   0  0  0  0  0  0  0  0  0  0  0  0
    9.4159    4.7099    3.9876 H   0  0  0  0  0  0  0  0  0  0  0  0
    9.8557    4.8471    2.2651 H   0  0  0  0  0  0  0  0  0  0  0  0
   10.4400    8.2982    3.7195 H   0  0  0  0  0  0  0  0  0  0  0  0
   11.2210    6.9324    2.8785 H   0  0  0  0  0  0  0  0  0  0  0  0
   10.6886    6.7558    4.5624 H   0  0  0  0  0  0  0  0  0  0  0  0
    6.7388    6.2154    1.7468 H   0  0  0  0  0  0  0  0  0  0  0  0
    5.9609    7.0933   -0.4031 H   0  0  0  0  0  0  0  0  0  0  0  0
    4.9805    9.1775   -1.1884 H   0  0  0  0  0  0  0  0  0  0  0  0
    3.0133    8.9240   -2.6442 H   0  0  0  0  0  0  0  0  0  0  0  0
    0.6921    8.8837   -6.4262 H   0  0  0  0  0  0  0  0  0  0  0  0
   -1.4639    7.8930   -5.7623 H   0  0  0  0  0  0  0  0  0  0  0  0
  2  1  1  6
  1123  1  0
  1124  1  0
  1125  1  0
  2  3  1  0
  2  4  1  0
  2  5  1  0
  3126  1  0
  3127  1  0
  3128  1  0
  4129  1  0
  4130  1  0
  4131  1  0
  5  6  2  0
  5 10  1  0
  6  7  1  0
  6132  1  0
  7  8  2  0
  7133  1  0
  8  9  1  0
  8 21  1  0
  9 10  2  0
  9 11  1  0
 10134  1  0
 11 12  2  0
 11 20  1  0
 12 13  1  0
 12135  1  0
 13 14  1  0
 13 18  2  0
 14 15  1  1
 14 16  1  0
 14 17  1  0
 15136  1  0
 15137  1  0
 15138  1  0
 16139  1  0
 16140  1  0
 16141  1  0
 17142  1  0
 17143  1  0
 17144  1  0
 18 19  1  0
 18145  1  0
 19 20  2  0
 19146  1  0
 20 21  1  0
 21 22  1  0
 22 23  2  0
 22122  1  0
 23 24  1  0
 23147  1  0
 24 25  2  0
 24148  1  0
 25 26  1  0
 25121  1  0
 26 27  1  0
 26 94  1  0
 27 28  2  0
 27 93  1  0
 28 29  1  0
 28149  1  0
 29 30  2  0
 29150  1  0
 30 31  1  0
 30 92  1  0
 31 32  2  0
 31 91  1  0
 32 33  1  0
 32151  1  0
 33 34  2  0
 33152  1  0
 34 35  1  0
 34 90  1  0
 35 36  1  0
 35 63  1  0
 36 37  2  0
 36 62  1  0
 37 38  1  0
 37153  1  0
 38 39  2  0
 38154  1  0
 39 40  1  0
 39 61  1  0
 40 41  1  0
 40 60  1  0
 41 42  2  0
 41 50  1  0
 42 43  1  0
 42155  1  0
 43 44  2  0
 43156  1  0
 44 45  1  0
 44 49  1  0
 45 46  1  1
 45 47  1  0
 45 48  1  0
 46157  1  0
 46158  1  0
 46159  1  0
 47160  1  0
 47161  1  0
 47162  1  0
 48163  1  0
 48164  1  0
 48165  1  0
 49 50  2  0
 49166  1  0
 50 51  1  0
 51 52  1  0
 51 60  2  0
 52 53  2  0
 52167  1  0
 53 54  1  0
 53 58  1  0
 54 55  1  1
 54 56  1  0
 54 57  1  0
 55168  1  0
 55169  1  0
 55170  1  0
 56171  1  0
 56172  1  0
 56173  1  0
 57174  1  0
 57175  1  0
 57176  1  0
 58 59  2  0
 58177  1  0
 59 60  1  0
 59178  1  0
 61 62  2  0
 61179  1  0
 62180  1  0
 63 64  2  0
 63 89  1  0
 64 65  1  0
 64181  1  0
 65 66  2  0
 65182  1  0
 66 67  1  0
 66 88  1  0
 67 68  1  0
 67 87  1  0
 68 69  2  0
 68 77  1  0
 69 70  1  0
 69183  1  0
 70 71  2  0
 70184  1  0
 71 72  1  0
 71 76  1  0
 72 73  1  1
 72 74  1  0
 72 75  1  0
 73185  1  0
 73186  1  0
 73187  1  0
 74188  1  0
 74189  1  0
 74190  1  0
 75191  1  0
 75192  1  0
 75193  1  0
 76 77  2  0
 76194  1  0
 77 78  1  0
 78 79  1  0
 78 87  2  0
 79 80  2  0
 79195  1  0
 80 81  1  0
 80 85  1  0
 81 82  1  1
 81 83  1  0
 81 84  1  0
 82196  1  0
 82197  1  0
 82198  1  0
 83199  1  0
 83200  1  0
 83201  1  0
 84202  1  0
 84203  1  0
 84204  1  0
 85 86  2  0
 85205  1  0
 86 87  1  0
 86206  1  0
 88 89  2  0
 88207  1  0
 89208  1  0
 90 91  2  0
 90209  1  0
 91210  1  0
 92 93  2  0
 92211  1  0
 93212  1  0
 94 95  2  0
 94120  1  0
 95 96  1  0
 95213  1  0
 96 97  2  0
 96214  1  0
 97 98  1  0
 97119  1  0
 98 99  1  0
 98118  1  0
 99100  2  0
 99108  1  0
100101  1  0
100215  1  0
101102  2  0
101216  1  0
102103  1  0
102107  1  0
103104  1  6
103105  1  0
103106  1  0
104217  1  0
104218  1  0
104219  1  0
105220  1  0
105221  1  0
105222  1  0
106223  1  0
106224  1  0
106225  1  0
107108  2  0
107226  1  0
108109  1  0
109110  1  0
109118  2  0
110111  2  0
110227  1  0
111112  1  0
111116  1  0
112113  1  1
112114  1  0
112115  1  0
113228  1  0
113229  1  0
113230  1  0
114231  1  0
114232  1  0
114233  1  0
115234  1  0
115235  1  0
115236  1  0
116117  2  0
116237  1  0
117118  1  0
117238  1  0
119120  2  0
119239  1  0
120240  1  0
121122  2  0
121241  1  0
122242  1  0
M  END

