
     RDKit          3D

 27 28  0  0  0  0  0  0  0  0999 V2000
    0.9769    0.2794   -0.1990 C   0  0  0  0  0  0  0  0  0  0  0  0
    2.3665    0.6043   -0.0980 O   0  0  0  0  0  0  0  0  0  0  0  0
    3.0516    0.6673   -1.2457 C   0  0  0  0  0  0  0  0  0  0  0  0
    2.5595    0.5386   -2.3378 O   0  0  0  0  0  0  0  0  0  0  0  0
    4.5417    0.9141   -0.9818 C   0  0  2  0  0  0  0  0  0  0  0  0
    5.1981    1.6148   -2.1774 C   0  0  0  0  0  0  0  0  0  0  0  0
    6.7259    1.6596   -2.0829 C   0  0  0  0  0  0  0  0  0  0  0  0
    7.2790    0.2879   -1.8605 C   0  0  0  0  0  0  0  0  0  0  0  0
    8.5417   -0.0196   -2.2853 N   0  0  0  0  0  0  0  0  0  0  0  0
    9.0737    0.6754   -2.8039 H   0  0  0  0  0  0  0  0  0  0  0  0
    9.2271   -1.2279   -2.0925 C   0  0  0  0  0  0  0  0  0  0  0  0
   10.3616   -1.3736   -2.5250 O   0  0  0  0  0  0  0  0  0  0  0  0
    8.4522   -2.2178   -1.3394 C   0  0  0  0  0  0  0  0  0  0  0  0
    7.1939   -1.9644   -0.9028 C   0  0  0  0  0  0  0  0  0  0  0  0
    6.5390   -0.6922   -1.1545 C   0  0  0  0  0  0  0  0  0  0  0  0
    5.2480   -0.4248   -0.6877 C   0  0  0  0  0  0  0  0  0  0  0  0
    4.5385   -1.2324    0.0490 O   0  0  0  0  0  0  0  0  0  0  0  0
    0.5897    0.2785    0.8268 H   0  0  0  0  0  0  0  0  0  0  0  0
    0.8458   -0.7118   -0.6579 H   0  0  0  0  0  0  0  0  0  0  0  0
    0.4471    1.0249   -0.8103 H   0  0  0  0  0  0  0  0  0  0  0  0
    4.6082    1.5219   -0.0610 H   0  0  0  0  0  0  0  0  0  0  0  0
    4.7908    2.6361   -2.2438 H   0  0  0  0  0  0  0  0  0  0  0  0
    4.8886    1.0887   -3.0927 H   0  0  0  0  0  0  0  0  0  0  0  0
    7.0331    2.3325   -1.2552 H   0  0  0  0  0  0  0  0  0  0  0  0
    7.1428    2.1010   -3.0042 H   0  0  0  0  0  0  0  0  0  0  0  0
    8.9476   -3.1729   -1.1584 H   0  0  0  0  0  0  0  0  0  0  0  0
    6.6427   -2.7279   -0.3476 H   0  0  0  0  0  0  0  0  0  0  0  0
  1  2  1  0
  1 18  1  0
  1 19  1  0
  1 20  1  0
  2  3  1  0
  3  4  2  0
  3  5  1  0
  5  6  1  0
  5 16  1  0
  5 21  1  1
  6  7  1  0
  6 22  1  0
  6 23  1  0
  7  8  1  0
  7 24  1  0
  7 25  1  0
  8  9  1  0
  8 15  2  0
  9 10  1  0
  9 11  1  0
 11 12  2  0
 11 13  1  0
 13 14  2  0
 13 26  1  0
 14 15  1  0
 14 27  1  0
 15 16  1  0
 16 17  2  0
M  END

