
     RDKit          3D

 42 43  0  0  0  0  0  0  0  0999 V2000
    0.9251    0.0874    1.1827 C   0  0  0  0  0  0  0  0  0  0  0  0
    2.3053    0.1571    0.5096 C   0  0  1  0  0  0  0  0  0  0  0  0
    2.9143    1.5487    0.7427 C   0  0  0  0  0  0  0  0  0  0  0  0
    3.2496   -0.9821    0.9930 C   0  0  1  0  0  0  0  0  0  0  0  0
    2.6786   -2.4030    0.7803 C   0  0  0  0  0  0  0  0  0  0  0  0
    2.6561   -2.8230   -0.6969 C   0  0  0  0  0  0  0  0  0  0  0  0
    4.0588   -2.7424   -1.3424 C   0  0  2  0  0  0  0  0  0  0  0  0
    4.9989   -3.8823   -0.9195 C   0  0  0  0  0  0  0  0  0  0  0  0
    6.1422   -3.6718   -0.5720 O   0  0  0  0  0  0  0  0  0  0  0  0
    4.4593   -5.3083   -0.9954 C   0  0  0  0  0  0  0  0  0  0  0  0
    5.5596   -6.3790   -0.9774 C   0  0  0  0  0  0  0  0  0  0  0  0
    5.0190   -7.7857   -0.9215 C   0  0  0  0  0  0  0  0  0  0  0  0
    4.4496   -8.3816    0.2558 C   0  0  0  0  0  0  0  0  0  0  0  0
    4.0071   -9.6633    0.0558 C   0  0  0  0  0  0  0  0  0  0  0  0
    4.2733  -10.1791   -1.5738 S   0  0  0  0  0  0  0  0  0  0  0  0
    4.9842   -8.6555   -1.9871 C   0  0  0  0  0  0  0  0  0  0  0  0
    4.6879   -1.3580   -1.1109 C   0  0  0  0  0  0  0  0  0  0  0  0
    4.6629   -0.9443    0.3690 C   0  0  0  0  0  0  0  0  0  0  0  0
    0.2947    0.9350    0.8689 H   0  0  0  0  0  0  0  0  0  0  0  0
    1.0197    0.1361    2.2817 H   0  0  0  0  0  0  0  0  0  0  0  0
    0.3751   -0.8331    0.9366 H   0  0  0  0  0  0  0  0  0  0  0  0
    2.1463    0.0484   -0.5788 H   0  0  0  0  0  0  0  0  0  0  0  0
    3.1544    1.7013    1.8094 H   0  0  0  0  0  0  0  0  0  0  0  0
    2.2043    2.3384    0.4484 H   0  0  0  0  0  0  0  0  0  0  0  0
    3.8371    1.7109    0.1667 H   0  0  0  0  0  0  0  0  0  0  0  0
    3.3663   -0.8346    2.0834 H   0  0  0  0  0  0  0  0  0  0  0  0
    1.6700   -2.4970    1.2108 H   0  0  0  0  0  0  0  0  0  0  0  0
    3.3102   -3.1117    1.3468 H   0  0  0  0  0  0  0  0  0  0  0  0
    1.9792   -2.1602   -1.2617 H   0  0  0  0  0  0  0  0  0  0  0  0
    2.2313   -3.8340   -0.8002 H   0  0  0  0  0  0  0  0  0  0  0  0
    3.9339   -2.9032   -2.4318 H   0  0  0  0  0  0  0  0  0  0  0  0
    3.8135   -5.4173   -1.8836 H   0  0  0  0  0  0  0  0  0  0  0  0
    3.7829   -5.4484   -0.1321 H   0  0  0  0  0  0  0  0  0  0  0  0
    6.2150   -6.1879   -0.1133 H   0  0  0  0  0  0  0  0  0  0  0  0
    6.1962   -6.2574   -1.8680 H   0  0  0  0  0  0  0  0  0  0  0  0
    4.3851   -7.8713    1.2193 H   0  0  0  0  0  0  0  0  0  0  0  0
    3.5476  -10.3377    0.7772 H   0  0  0  0  0  0  0  0  0  0  0  0
    5.3487   -8.4804   -2.9990 H   0  0  0  0  0  0  0  0  0  0  0  0
    4.1405   -0.6193   -1.7210 H   0  0  0  0  0  0  0  0  0  0  0  0
    5.7267   -1.3647   -1.4727 H   0  0  0  0  0  0  0  0  0  0  0  0
    5.1201    0.0501    0.4845 H   0  0  0  0  0  0  0  0  0  0  0  0
    5.3097   -1.6370    0.9315 H   0  0  0  0  0  0  0  0  0  0  0  0
  1  2  1  0
  1 19  1  0
  1 20  1  0
  1 21  1  0
  2  3  1  0
  2  4  1  0
  2 22  1  6
  3 23  1  0
  3 24  1  0
  3 25  1  0
  4  5  1  0
  4 18  1  0
  4 26  1  1
  5  6  1  0
  5 27  1  0
  5 28  1  0
  6  7  1  0
  6 29  1  0
  6 30  1  0
  7  8  1  0
  7 17  1  0
  7 31  1  6
  8  9  2  0
  8 10  1  0
 10 11  1  0
 10 32  1  0
 10 33  1  0
 11 12  1  0
 11 34  1  0
 11 35  1  0
 12 13  1  0
 12 16  2  0
 13 14  2  0
 13 36  1  0
 14 15  1  0
 14 37  1  0
 15 16  1  0
 16 38  1  0
 17 18  1  0
 17 39  1  0
 17 40  1  0
 18 41  1  0
 18 42  1  0
M  END

