
     RDKit          3D

 43 45  0  0  0  0  0  0  0  0999 V2000
    1.3994    0.4449   -0.2158 C   0  0  0  0  0  0  0  0  0  0  0  0
    2.7949    0.2069    0.2928 C   0  0  0  0  0  0  0  0  0  0  0  0
    3.6248    1.2483    0.5861 C   0  0  0  0  0  0  0  0  0  0  0  0
    4.9829    1.0691    1.0799 C   0  0  0  0  0  0  0  0  0  0  0  0
    5.7659    1.9403    1.3564 O   0  0  0  0  0  0  0  0  0  0  0  0
    5.3972   -0.2523    1.2407 O   0  0  0  0  0  0  0  0  0  0  0  0
    4.6053   -1.3186    0.9623 C   0  0  0  0  0  0  0  0  0  0  0  0
    5.1530   -2.5792    1.1724 C   0  0  0  0  0  0  0  0  0  0  0  0
    4.3968   -3.7406    0.9079 C   0  0  0  0  0  0  0  0  0  0  0  0
    4.9480   -4.9714    1.1227 N   0  0  0  0  0  0  0  0  0  0  0  0
    4.3019   -6.2250    0.8860 C   0  0  0  0  0  0  0  0  0  0  0  0
    5.2839   -7.3488    1.2568 C   0  0  0  0  0  0  0  0  0  0  0  0
    6.4023   -7.0696    1.6665 O   0  0  0  0  0  0  0  0  0  0  0  0
    4.8518   -8.6353    1.1073 N   0  0  0  0  0  0  0  0  0  0  0  0
    3.5290   -9.0539    0.6583 C   0  0  0  0  0  0  0  0  0  0  0  0
    3.6726  -10.1280   -0.4232 C   0  0  0  0  0  0  0  0  0  0  0  0
    4.4733  -11.1988    0.0174 O   0  0  0  0  0  0  0  0  0  0  0  0
    5.7905  -10.7912    0.3784 C   0  0  2  0  0  0  0  0  0  0  0  0
    6.5656  -12.0319    0.7839 C   0  0  0  0  0  0  0  0  0  0  0  0
    5.7272   -9.7416    1.4930 C   0  0  0  0  0  0  0  0  0  0  0  0
    3.0702   -3.5832    0.4225 C   0  0  0  0  0  0  0  0  0  0  0  0
    2.5423   -2.3164    0.2207 C   0  0  0  0  0  0  0  0  0  0  0  0
    3.2827   -1.1457    0.4806 C   0  0  0  0  0  0  0  0  0  0  0  0
    1.1864    1.5192   -0.3014 H   0  0  0  0  0  0  0  0  0  0  0  0
    0.6493   -0.0023    0.4574 H   0  0  0  0  0  0  0  0  0  0  0  0
    1.2542   -0.0151   -1.2074 H   0  0  0  0  0  0  0  0  0  0  0  0
    3.3114    2.2862    0.4644 H   0  0  0  0  0  0  0  0  0  0  0  0
    6.1765   -2.6481    1.5455 H   0  0  0  0  0  0  0  0  0  0  0  0
    5.9004   -5.0554    1.4691 H   0  0  0  0  0  0  0  0  0  0  0  0
    3.9951   -6.3407   -0.1734 H   0  0  0  0  0  0  0  0  0  0  0  0
    3.3779   -6.3401    1.4883 H   0  0  0  0  0  0  0  0  0  0  0  0
    2.9605   -8.2040    0.2608 H   0  0  0  0  0  0  0  0  0  0  0  0
    2.9618   -9.4717    1.5118 H   0  0  0  0  0  0  0  0  0  0  0  0
    4.1049   -9.6674   -1.3362 H   0  0  0  0  0  0  0  0  0  0  0  0
    2.6858  -10.5429   -0.6798 H   0  0  0  0  0  0  0  0  0  0  0  0
    6.2710  -10.3202   -0.5053 H   0  0  0  0  0  0  0  0  0  0  0  0
    6.0993  -12.5090    1.6602 H   0  0  0  0  0  0  0  0  0  0  0  0
    7.6071  -11.7775    1.0332 H   0  0  0  0  0  0  0  0  0  0  0  0
    6.5688  -12.7600   -0.0402 H   0  0  0  0  0  0  0  0  0  0  0  0
    6.7190   -9.3269    1.7114 H   0  0  0  0  0  0  0  0  0  0  0  0
    5.3347  -10.2166    2.4122 H   0  0  0  0  0  0  0  0  0  0  0  0
    2.4556   -4.4576    0.2068 H   0  0  0  0  0  0  0  0  0  0  0  0
    1.5195   -2.2294   -0.1517 H   0  0  0  0  0  0  0  0  0  0  0  0
  1  2  1  0
  1 24  1  0
  1 25  1  0
  1 26  1  0
  2  3  2  0
  2 23  1  0
  3  4  1  0
  3 27  1  0
  4  5  2  0
  4  6  1  0
  6  7  1  0
  7  8  1  0
  7 23  2  0
  8  9  2  0
  8 28  1  0
  9 10  1  0
  9 21  1  0
 10 11  1  0
 10 29  1  0
 11 12  1  0
 11 30  1  0
 11 31  1  0
 12 13  2  0
 12 14  1  0
 14 15  1  0
 14 20  1  0
 15 16  1  0
 15 32  1  0
 15 33  1  0
 16 17  1  0
 16 34  1  0
 16 35  1  0
 17 18  1  0
 18 19  1  0
 18 20  1  0
 18 36  1  6
 19 37  1  0
 19 38  1  0
 19 39  1  0
 20 40  1  0
 20 41  1  0
 21 22  2  0
 21 42  1  0
 22 23  1  0
 22 43  1  0
M  END

