
     RDKit          3D

 50 54  0  0  0  0  0  0  0  0999 V2000
    2.0288    0.5302   -2.1315 C   0  0  0  0  0  0  0  0  0  0  0  0
    2.8881    0.2823   -0.9384 C   0  0  0  0  0  0  0  0  0  0  0  0
    3.6316    1.1175   -0.1540 C   0  0  0  0  0  0  0  0  0  0  0  0
    3.8108    2.5996   -0.2351 C   0  0  0  0  0  0  0  0  0  0  0  0
    5.1970    3.0018   -0.4972 N   0  0  0  0  0  0  0  0  0  0  0  0
    5.7790    2.5465   -1.7567 C   0  0  0  0  0  0  0  0  0  0  0  0
    5.3334    3.3715   -2.9674 C   0  0  0  0  0  0  0  0  0  0  0  0
    5.5481    4.8014   -2.7188 N   0  0  0  0  0  0  0  0  0  0  0  0
    5.7217    5.6106   -3.8043 C   0  0  0  0  0  0  0  0  0  0  0  0
    5.9272    5.1802   -5.0341 N   0  0  0  0  0  0  0  0  0  0  0  0
    6.0956    6.3100   -5.7965 C   0  0  0  0  0  0  0  0  0  0  0  0
    6.3450    6.4579   -7.1695 C   0  0  0  0  0  0  0  0  0  0  0  0
    6.4939    4.8855   -8.2111 Br  0  0  0  0  0  0  0  0  0  0  0  0
    6.4700    7.7542   -7.7042 C   0  0  0  0  0  0  0  0  0  0  0  0
    6.8069    7.9634   -9.5618 Br  0  0  0  0  0  0  0  0  0  0  0  0
    6.3468    8.9027   -6.8761 C   0  0  0  0  0  0  0  0  0  0  0  0
    6.5194   10.6475   -7.6018 Br  0  0  0  0  0  0  0  0  0  0  0  0
    6.0945    8.7566   -5.4998 C   0  0  0  0  0  0  0  0  0  0  0  0
    5.9078   10.2140   -4.2924 Br  0  0  0  0  0  0  0  0  0  0  0  0
    5.9750    7.4690   -4.9912 C   0  0  0  0  0  0  0  0  0  0  0  0
    5.7300    6.9928   -3.7169 N   0  0  0  0  0  0  0  0  0  0  0  0
    5.5883    7.5740   -2.9016 H   0  0  0  0  0  0  0  0  0  0  0  0
    5.0376    5.3184   -1.4536 C   0  0  0  0  0  0  0  0  0  0  0  0
    5.4817    4.4117   -0.2912 C   0  0  0  0  0  0  0  0  0  0  0  0
    4.2631    0.3335    0.8246 N   0  0  0  0  0  0  0  0  0  0  0  0
    4.9709    0.8207    2.0127 C   0  0  0  0  0  0  0  0  0  0  0  0
    5.7035   -0.3240    2.6741 C   0  0  0  0  0  0  0  0  0  0  0  0
    5.3690   -1.6165    2.4358 C   0  0  0  0  0  0  0  0  0  0  0  0
    4.3760   -2.0059    1.4647 C   0  0  0  0  0  0  0  0  0  0  0  0
    3.8967   -0.9906    0.6696 C   0  0  0  0  0  0  0  0  0  0  0  0
    3.0484   -1.0047   -0.4167 N   0  0  0  0  0  0  0  0  0  0  0  0
    2.0180    1.5958   -2.3970 H   0  0  0  0  0  0  0  0  0  0  0  0
    0.9842    0.2213   -1.9497 H   0  0  0  0  0  0  0  0  0  0  0  0
    2.3850   -0.0305   -3.0139 H   0  0  0  0  0  0  0  0  0  0  0  0
    3.5298    3.0597    0.7286 H   0  0  0  0  0  0  0  0  0  0  0  0
    3.0815    2.9860   -0.9769 H   0  0  0  0  0  0  0  0  0  0  0  0
    5.5229    1.4886   -1.9164 H   0  0  0  0  0  0  0  0  0  0  0  0
    6.8775    2.6086   -1.6669 H   0  0  0  0  0  0  0  0  0  0  0  0
    4.2642    3.1876   -3.1969 H   0  0  0  0  0  0  0  0  0  0  0  0
    5.9004    3.0969   -3.8658 H   0  0  0  0  0  0  0  0  0  0  0  0
    3.9313    5.4069   -1.4808 H   0  0  0  0  0  0  0  0  0  0  0  0
    5.4399    6.3266   -1.2709 H   0  0  0  0  0  0  0  0  0  0  0  0
    5.0027    4.7548    0.6399 H   0  0  0  0  0  0  0  0  0  0  0  0
    6.5726    4.5288   -0.1646 H   0  0  0  0  0  0  0  0  0  0  0  0
    4.2396    1.3000    2.7099 H   0  0  0  0  0  0  0  0  0  0  0  0
    5.6599    1.6209    1.6939 H   0  0  0  0  0  0  0  0  0  0  0  0
    6.4827   -0.0641    3.3941 H   0  0  0  0  0  0  0  0  0  0  0  0
    5.8956   -2.4073    2.9794 H   0  0  0  0  0  0  0  0  0  0  0  0
    4.0921   -3.0431    1.2961 H   0  0  0  0  0  0  0  0  0  0  0  0
    2.6609   -1.8495   -0.8118 H   0  0  0  0  0  0  0  0  0  0  0  0
  1  2  1  0
  1 32  1  0
  1 33  1  0
  1 34  1  0
  2  3  2  0
  2 31  1  0
  3  4  1  0
  3 25  1  0
  4  5  1  0
  4 35  1  0
  4 36  1  0
  5  6  1  0
  5 24  1  0
  6  7  1  0
  6 37  1  0
  6 38  1  0
  7  8  1  0
  7 39  1  0
  7 40  1  0
  8  9  1  0
  8 23  1  0
  9 10  2  0
  9 21  1  0
 10 11  1  0
 11 12  2  0
 11 20  1  0
 12 13  1  0
 12 14  1  0
 14 15  1  0
 14 16  2  0
 16 17  1  0
 16 18  1  0
 18 19  1  0
 18 20  2  0
 20 21  1  0
 21 22  1  0
 23 24  1  0
 23 41  1  0
 23 42  1  0
 24 43  1  0
 24 44  1  0
 25 26  1  0
 25 30  1  0
 26 27  1  0
 26 45  1  0
 26 46  1  0
 27 28  2  0
 27 47  1  0
 28 29  1  0
 28 48  1  0
 29 30  2  0
 29 49  1  0
 30 31  1  0
 31 50  1  0
M  END

