
     RDKit          3D

 60 64  0  0  0  0  0  0  0  0999 V2000
    1.1095    0.1599   -0.6052 O   0  0  0  0  0  0  0  0  0  0  0  0
    2.2923    0.0318   -0.3138 C   0  0  0  0  0  0  0  0  0  0  0  0
    2.9091    0.6296    0.7317 N   0  0  0  0  0  0  0  0  0  0  0  0
    2.2559    1.5481    1.6344 C   0  0  0  0  0  0  0  0  0  0  0  0
    3.0102    2.8726    1.7494 C   0  0  2  0  0  0  0  0  0  0  0  0
    3.1676    3.6902    0.4664 C   0  0  0  0  0  0  0  0  0  0  0  0
    4.4333    4.5018    0.7624 C   0  0  0  0  0  0  0  0  0  0  0  0
    5.2896    3.5430    1.6337 C   0  0  2  0  0  0  0  0  0  0  0  0
    5.9917    4.2463    2.8064 C   0  0  0  0  0  0  0  0  0  0  0  0
    7.1971    5.0816    2.3392 C   0  0  0  0  0  0  0  0  0  0  0  0
    8.1672    4.3250    1.5564 N   0  0  0  0  0  0  0  0  0  0  0  0
    7.5480    3.6322    0.4315 C   0  0  0  0  0  0  0  0  0  0  0  0
    6.3355    2.7641    0.8153 C   0  0  0  0  0  0  0  0  0  0  0  0
    4.3422    2.5921    2.1707 O   0  0  0  0  0  0  0  0  0  0  0  0
    3.2012   -0.8455   -1.1444 C   0  0  0  0  0  0  0  0  0  0  0  0
    2.6788   -1.5403   -2.2479 C   0  0  0  0  0  0  0  0  0  0  0  0
    3.5588   -2.3072   -2.9829 C   0  0  0  0  0  0  0  0  0  0  0  0
    4.9057   -2.3419   -2.5561 C   0  0  0  0  0  0  0  0  0  0  0  0
    5.8318   -3.1261   -3.2357 N   0  0  0  0  0  0  0  0  0  0  0  0
    7.1970   -2.8017   -3.4238 C   0  0  0  0  0  0  0  0  0  0  0  0
    7.6675   -1.7057   -3.2112 O   0  0  0  0  0  0  0  0  0  0  0  0
    7.9339   -3.8524   -3.9090 N   0  0  0  0  0  0  0  0  0  0  0  0
    7.5204   -5.2567   -3.9643 C   0  0  0  0  0  0  0  0  0  0  0  0
    8.8004   -5.9667   -4.3309 C   0  0  0  0  0  0  0  0  0  0  0  0
    9.0164   -7.3305   -4.5342 C   0  0  0  0  0  0  0  0  0  0  0  0
   10.3021   -7.7652   -4.8742 C   0  0  0  0  0  0  0  0  0  0  0  0
   11.3507   -6.8456   -5.0078 C   0  0  0  0  0  0  0  0  0  0  0  0
   11.1296   -5.4792   -4.8029 C   0  0  0  0  0  0  0  0  0  0  0  0
    9.8465   -5.0464   -4.4631 C   0  0  0  0  0  0  0  0  0  0  0  0
    9.3596   -3.6482   -4.1894 C   0  0  0  0  0  0  0  0  0  0  0  0
    5.3321   -1.6754   -1.4758 N   0  0  0  0  0  0  0  0  0  0  0  0
    4.4856   -0.9291   -0.7976 N   0  0  0  0  0  0  0  0  0  0  0  0
    3.9012    0.4392    0.8550 H   0  0  0  0  0  0  0  0  0  0  0  0
    2.1799    1.1034    2.6429 H   0  0  0  0  0  0  0  0  0  0  0  0
    1.2338    1.7159    1.2647 H   0  0  0  0  0  0  0  0  0  0  0  0
    2.4927    3.4834    2.5190 H   0  0  0  0  0  0  0  0  0  0  0  0
    2.2881    4.3147    0.2487 H   0  0  0  0  0  0  0  0  0  0  0  0
    3.3253    3.0148   -0.3893 H   0  0  0  0  0  0  0  0  0  0  0  0
    4.1782    5.4085    1.3358 H   0  0  0  0  0  0  0  0  0  0  0  0
    4.9557    4.8297   -0.1480 H   0  0  0  0  0  0  0  0  0  0  0  0
    6.3355    3.4659    3.5074 H   0  0  0  0  0  0  0  0  0  0  0  0
    5.2671    4.8718    3.3560 H   0  0  0  0  0  0  0  0  0  0  0  0
    7.7082    5.5306    3.2067 H   0  0  0  0  0  0  0  0  0  0  0  0
    6.8434    5.9277    1.7208 H   0  0  0  0  0  0  0  0  0  0  0  0
    8.6370    3.6478    2.1582 H   0  0  0  0  0  0  0  0  0  0  0  0
    8.3085    3.0137   -0.0716 H   0  0  0  0  0  0  0  0  0  0  0  0
    7.2397    4.3949   -0.3078 H   0  0  0  0  0  0  0  0  0  0  0  0
    6.6723    1.9140    1.4336 H   0  0  0  0  0  0  0  0  0  0  0  0
    5.8696    2.3276   -0.0846 H   0  0  0  0  0  0  0  0  0  0  0  0
    1.6195   -1.4405   -2.4891 H   0  0  0  0  0  0  0  0  0  0  0  0
    3.2379   -2.8602   -3.8698 H   0  0  0  0  0  0  0  0  0  0  0  0
    5.4416   -3.8295   -3.8515 H   0  0  0  0  0  0  0  0  0  0  0  0
    6.7356   -5.4347   -4.7289 H   0  0  0  0  0  0  0  0  0  0  0  0
    7.1109   -5.5983   -2.9950 H   0  0  0  0  0  0  0  0  0  0  0  0
    8.1997   -8.0503   -4.4309 H   0  0  0  0  0  0  0  0  0  0  0  0
   10.4897   -8.8295   -5.0366 H   0  0  0  0  0  0  0  0  0  0  0  0
   12.3501   -7.1988   -5.2738 H   0  0  0  0  0  0  0  0  0  0  0  0
   11.9509   -4.7652   -4.9074 H   0  0  0  0  0  0  0  0  0  0  0  0
    9.5057   -2.9670   -5.0476 H   0  0  0  0  0  0  0  0  0  0  0  0
    9.8624   -3.1753   -3.3272 H   0  0  0  0  0  0  0  0  0  0  0  0
  1  2  2  0
  2  3  1  0
  2 15  1  0
  3  4  1  0
  3 33  1  0
  4  5  1  0
  4 34  1  0
  4 35  1  0
  5  6  1  0
  5 14  1  0
  5 36  1  1
  6  7  1  0
  6 37  1  0
  6 38  1  0
  7  8  1  0
  7 39  1  0
  7 40  1  0
  8  9  1  0
  8 13  1  0
  8 14  1  1
  9 10  1  0
  9 41  1  0
  9 42  1  0
 10 11  1  0
 10 43  1  0
 10 44  1  0
 11 12  1  0
 11 45  1  0
 12 13  1  0
 12 46  1  0
 12 47  1  0
 13 48  1  0
 13 49  1  0
 15 16  2  0
 15 32  1  0
 16 17  1  0
 16 50  1  0
 17 18  2  0
 17 51  1  0
 18 19  1  0
 18 31  1  0
 19 20  1  0
 19 52  1  0
 20 21  2  0
 20 22  1  0
 22 23  1  0
 22 30  1  0
 23 24  1  0
 23 53  1  0
 23 54  1  0
 24 25  1  0
 24 29  2  0
 25 26  2  0
 25 55  1  0
 26 27  1  0
 26 56  1  0
 27 28  2  0
 27 57  1  0
 28 29  1  0
 28 58  1  0
 29 30  1  0
 30 59  1  0
 30 60  1  0
 31 32  2  0
M  END

