
     RDKit          3D

 35 37  0  0  0  0  0  0  0  0999 V2000
    8.0764   -0.4825   -3.8524 C   0  0  0  0  0  0  0  0  0  0  0  0
    7.3146   -0.0453   -2.6508 C   0  0  0  0  0  0  0  0  0  0  0  0
    6.9963    1.1831   -2.1418 C   0  0  0  0  0  0  0  0  0  0  0  0
    6.2472    0.8605   -0.9675 C   0  0  0  0  0  0  0  0  0  0  0  0
    5.6455    1.6795   -0.0241 N   0  0  0  0  0  0  0  0  0  0  0  0
    5.6136    3.0549    0.0409 C   0  0  0  0  0  0  0  0  0  0  0  0
    4.9186    3.6919    1.1001 C   0  0  0  0  0  0  0  0  0  0  0  0
    4.9010    5.0675    1.1056 C   0  0  0  0  0  0  0  0  0  0  0  0
    5.5978    5.7374    0.0752 C   0  0  0  0  0  0  0  0  0  0  0  0
    5.6391    7.1447    0.0384 N   0  0  0  0  0  0  0  0  0  0  0  0
    5.3924    7.9195   -1.0891 C   0  0  0  0  0  0  0  0  0  0  0  0
    5.0068    7.4603   -2.1420 O   0  0  0  0  0  0  0  0  0  0  0  0
    5.6081    9.4005   -0.8956 C   0  0  0  0  0  0  0  0  0  0  0  0
    4.9580   10.2690   -1.7861 C   0  0  0  0  0  0  0  0  0  0  0  0
    5.1221   11.6497   -1.6670 C   0  0  0  0  0  0  0  0  0  0  0  0
    5.9450   12.1847   -0.6708 C   0  0  0  0  0  0  0  0  0  0  0  0
    6.5979   11.3101    0.1945 C   0  0  0  0  0  0  0  0  0  0  0  0
    7.4048   11.8076    1.1429 F   0  0  0  0  0  0  0  0  0  0  0  0
    6.4461    9.9290    0.0989 C   0  0  0  0  0  0  0  0  0  0  0  0
    6.2542    5.0791   -0.8718 N   0  0  0  0  0  0  0  0  0  0  0  0
    6.2489    3.7590   -0.9024 N   0  0  0  0  0  0  0  0  0  0  0  0
    6.1333   -0.4432   -0.7966 N   0  0  0  0  0  0  0  0  0  0  0  0
    6.8084   -1.0109   -1.8613 O   0  0  0  0  0  0  0  0  0  0  0  0
    8.4347    0.3907   -4.4132 H   0  0  0  0  0  0  0  0  0  0  0  0
    7.4443   -1.0937   -4.5168 H   0  0  0  0  0  0  0  0  0  0  0  0
    8.9442   -1.0979   -3.5647 H   0  0  0  0  0  0  0  0  0  0  0  0
    7.2367    2.1715   -2.5136 H   0  0  0  0  0  0  0  0  0  0  0  0
    5.1631    1.1692    0.7072 H   0  0  0  0  0  0  0  0  0  0  0  0
    4.4044    3.1099    1.8690 H   0  0  0  0  0  0  0  0  0  0  0  0
    4.3606    5.6257    1.8739 H   0  0  0  0  0  0  0  0  0  0  0  0
    5.6824    7.6230    0.9300 H   0  0  0  0  0  0  0  0  0  0  0  0
    4.3313    9.8355   -2.5668 H   0  0  0  0  0  0  0  0  0  0  0  0
    4.6079   12.3219   -2.3581 H   0  0  0  0  0  0  0  0  0  0  0  0
    6.0947   13.2603   -0.5591 H   0  0  0  0  0  0  0  0  0  0  0  0
    7.0168    9.2954    0.7804 H   0  0  0  0  0  0  0  0  0  0  0  0
  1  2  1  0
  1 24  1  0
  1 25  1  0
  1 26  1  0
  2  3  2  0
  2 23  1  0
  3  4  1  0
  3 27  1  0
  4  5  1  0
  4 22  2  0
  5  6  1  0
  5 28  1  0
  6  7  2  0
  6 21  1  0
  7  8  1  0
  7 29  1  0
  8  9  2  0
  8 30  1  0
  9 10  1  0
  9 20  1  0
 10 11  1  0
 10 31  1  0
 11 12  2  0
 11 13  1  0
 13 14  2  0
 13 19  1  0
 14 15  1  0
 14 32  1  0
 15 16  2  0
 15 33  1  0
 16 17  1  0
 16 34  1  0
 17 18  1  0
 17 19  2  0
 19 35  1  0
 20 21  2  0
 22 23  1  0
M  END

