
     RDKit          3D

 56 58  0  0  0  0  0  0  0  0999 V2000
   -0.2862   -3.5520   -2.6969 O   0  0  0  0  0  0  0  0  0  0  0  0
    0.3955   -3.1828   -1.7791 C   0  0  0  0  0  0  0  0  0  0  0  0
   -0.1168   -2.3336   -0.8586 O   0  0  0  0  0  0  0  0  0  0  0  0
    1.8397   -3.6442   -1.5293 C   0  0  1  0  0  0  0  0  0  0  0  0
    2.3686   -4.4682   -2.7166 C   0  0  0  0  0  0  0  0  0  0  0  0
    2.6946   -3.5943   -3.9393 C   0  0  0  0  0  0  0  0  0  0  0  0
    3.6334   -2.4216   -3.6158 C   0  0  2  0  0  0  0  0  0  0  0  0
    4.9921   -2.9100   -3.3805 N   0  0  0  0  0  0  0  0  0  0  0  0
    6.0736   -2.0630   -3.4854 C   0  0  0  0  0  0  0  0  0  0  0  0
    5.9286   -0.8733   -3.7431 O   0  0  0  0  0  0  0  0  0  0  0  0
    7.3305   -2.6283   -3.3069 N   0  0  0  0  0  0  0  0  0  0  0  0
    7.5849   -4.0265   -2.9878 C   0  0  0  0  0  0  0  0  0  0  0  0
    8.8895   -4.5072   -3.6564 C   0  0  0  0  0  0  0  0  0  0  0  0
   10.0349   -3.6415   -3.4188 N   0  0  0  0  0  0  0  0  0  0  0  0
   10.7000   -3.8040   -2.1284 C   0  0  0  0  0  0  0  0  0  0  0  0
   11.3826   -5.1382   -2.0083 C   0  0  0  0  0  0  0  0  0  0  0  0
   11.2557   -5.9666   -0.9574 C   0  0  0  0  0  0  0  0  0  0  0  0
   11.9216   -7.2627   -0.7446 C   0  0  0  0  0  0  0  0  0  0  0  0
   11.6184   -8.0029    0.4147 C   0  0  0  0  0  0  0  0  0  0  0  0
   12.2182   -9.2392    0.6640 C   0  0  0  0  0  0  0  0  0  0  0  0
   13.1401   -9.7659   -0.2439 C   0  0  0  0  0  0  0  0  0  0  0  0
   13.4555   -9.0429   -1.4012 C   0  0  0  0  0  0  0  0  0  0  0  0
   12.8566   -7.8088   -1.6482 C   0  0  0  0  0  0  0  0  0  0  0  0
    9.7151   -2.2689   -3.7994 C   0  0  0  0  0  0  0  0  0  0  0  0
    8.4607   -1.7219   -3.1107 C   0  0  0  0  0  0  0  0  0  0  0  0
    3.0854   -1.6027   -2.4272 C   0  0  0  0  0  0  0  0  0  0  0  0
    2.8090   -2.4837   -1.2047 C   0  0  0  0  0  0  0  0  0  0  0  0
    0.5477   -2.1209   -0.1880 H   0  0  0  0  0  0  0  0  0  0  0  0
    1.7749   -4.3020   -0.6414 H   0  0  0  0  0  0  0  0  0  0  0  0
    1.6258   -5.2291   -2.9957 H   0  0  0  0  0  0  0  0  0  0  0  0
    3.2668   -5.0170   -2.3794 H   0  0  0  0  0  0  0  0  0  0  0  0
    1.7518   -3.1849   -4.3330 H   0  0  0  0  0  0  0  0  0  0  0  0
    3.1328   -4.2105   -4.7415 H   0  0  0  0  0  0  0  0  0  0  0  0
    3.6946   -1.7493   -4.4840 H   0  0  0  0  0  0  0  0  0  0  0  0
    5.1075   -3.8354   -2.9929 H   0  0  0  0  0  0  0  0  0  0  0  0
    6.7697   -4.6551   -3.3741 H   0  0  0  0  0  0  0  0  0  0  0  0
    7.6354   -4.1832   -1.8896 H   0  0  0  0  0  0  0  0  0  0  0  0
    8.7142   -4.5536   -4.7463 H   0  0  0  0  0  0  0  0  0  0  0  0
    9.1209   -5.5279   -3.3148 H   0  0  0  0  0  0  0  0  0  0  0  0
   10.0402   -3.6488   -1.2461 H   0  0  0  0  0  0  0  0  0  0  0  0
   11.4696   -3.0118   -2.0718 H   0  0  0  0  0  0  0  0  0  0  0  0
   12.0253   -5.4008   -2.8563 H   0  0  0  0  0  0  0  0  0  0  0  0
   10.5836   -5.6600   -0.1456 H   0  0  0  0  0  0  0  0  0  0  0  0
   10.8982   -7.5969    1.1310 H   0  0  0  0  0  0  0  0  0  0  0  0
   11.9648   -9.7925    1.5721 H   0  0  0  0  0  0  0  0  0  0  0  0
   13.6129  -10.7324   -0.0525 H   0  0  0  0  0  0  0  0  0  0  0  0
   14.1778   -9.4454   -2.1162 H   0  0  0  0  0  0  0  0  0  0  0  0
   13.1216   -7.2598   -2.5545 H   0  0  0  0  0  0  0  0  0  0  0  0
    9.5550   -2.2442   -4.8923 H   0  0  0  0  0  0  0  0  0  0  0  0
   10.5769   -1.6187   -3.5788 H   0  0  0  0  0  0  0  0  0  0  0  0
    8.1756   -0.7447   -3.5195 H   0  0  0  0  0  0  0  0  0  0  0  0
    8.6528   -1.5847   -2.0262 H   0  0  0  0  0  0  0  0  0  0  0  0
    2.1531   -1.1036   -2.7467 H   0  0  0  0  0  0  0  0  0  0  0  0
    3.8046   -0.8060   -2.1874 H   0  0  0  0  0  0  0  0  0  0  0  0
    2.4464   -1.8676   -0.3618 H   0  0  0  0  0  0  0  0  0  0  0  0
    3.7565   -2.9215   -0.8467 H   0  0  0  0  0  0  0  0  0  0  0  0
  1  2  2  0
  2  3  1  0
  2  4  1  0
  3 28  1  0
  4  5  1  0
  4 27  1  0
  4 29  1  1
  5  6  1  0
  5 30  1  0
  5 31  1  0
  6  7  1  0
  6 32  1  0
  6 33  1  0
  7  8  1  0
  7 26  1  0
  7 34  1  6
  8  9  1  0
  8 35  1  0
  9 10  2  0
  9 11  1  0
 11 12  1  0
 11 25  1  0
 12 13  1  0
 12 36  1  0
 12 37  1  0
 13 14  1  0
 13 38  1  0
 13 39  1  0
 14 15  1  0
 14 24  1  0
 15 16  1  0
 15 40  1  0
 15 41  1  0
 16 17  2  0
 16 42  1  0
 17 18  1  0
 17 43  1  0
 18 19  2  0
 18 23  1  0
 19 20  1  0
 19 44  1  0
 20 21  2  0
 20 45  1  0
 21 22  1  0
 21 46  1  0
 22 23  2  0
 22 47  1  0
 23 48  1  0
 24 25  1  0
 24 49  1  0
 24 50  1  0
 25 51  1  0
 25 52  1  0
 26 27  1  0
 26 53  1  0
 26 54  1  0
 27 55  1  0
 27 56  1  0
M  END

