
     RDKit          3D

 47 49  0  0  0  0  0  0  0  0999 V2000
   11.2894    0.0347    0.8728 O   0  0  0  0  0  0  0  0  0  0  0  0
   11.8804    0.9125    1.5040 C   0  0  0  0  0  0  0  0  0  0  0  0
   11.3320    1.6684    2.6435 C   0  0  0  0  0  0  0  0  0  0  0  0
   10.0878    1.4026    3.0977 C   0  0  0  0  0  0  0  0  0  0  0  0
    9.3791    2.0356    4.1978 C   0  0  0  0  0  0  0  0  0  0  0  0
    8.0821    1.6101    4.5283 C   0  0  0  0  0  0  0  0  0  0  0  0
    7.3397    2.1174    5.5128 N   0  0  0  0  0  0  0  0  0  0  0  0
    7.8372    3.1027    6.2675 C   0  0  0  0  0  0  0  0  0  0  0  0
    7.1179    3.6330    7.2926 N   0  0  0  0  0  0  0  0  0  0  0  0
    5.7410    3.3033    7.6548 C   0  0  2  0  0  0  0  0  0  0  0  0
    4.7313    3.7713    6.5597 C   0  0  0  0  0  0  0  0  0  0  0  0
    4.6726    5.2611    6.3138 C   0  0  0  0  0  0  0  0  0  0  0  0
    5.5921    5.8876    5.4540 C   0  0  0  0  0  0  0  0  0  0  0  0
    5.5568    7.2686    5.2423 C   0  0  0  0  0  0  0  0  0  0  0  0
    4.5946    8.0547    5.8835 C   0  0  0  0  0  0  0  0  0  0  0  0
    3.6646    7.4467    6.7314 C   0  0  0  0  0  0  0  0  0  0  0  0
    3.7051    6.0650    6.9410 C   0  0  0  0  0  0  0  0  0  0  0  0
    5.4315    3.8970    9.0467 C   0  0  0  0  0  0  0  0  0  0  0  0
    4.2947    3.0148    9.6015 C   0  0  0  0  0  0  0  0  0  0  0  0
    4.4084    1.7275    8.8988 N   0  0  0  0  0  0  0  0  0  0  0  0
    5.5254    1.7926    7.9609 C   0  0  0  0  0  0  0  0  0  0  0  0
    9.1448    3.6059    6.0010 C   0  0  0  0  0  0  0  0  0  0  0  0
    9.5995    4.6091    6.7791 F   0  0  0  0  0  0  0  0  0  0  0  0
    9.9090    3.0892    4.9891 C   0  0  0  0  0  0  0  0  0  0  0  0
   13.1436    1.2715    1.1097 N   0  0  0  0  0  0  0  0  0  0  0  0
   13.7326    0.4470    0.1643 O   0  0  0  0  0  0  0  0  0  0  0  0
   11.9609    2.4442    3.0911 H   0  0  0  0  0  0  0  0  0  0  0  0
    9.5461    0.6104    2.5688 H   0  0  0  0  0  0  0  0  0  0  0  0
    7.6220    0.8029    3.9459 H   0  0  0  0  0  0  0  0  0  0  0  0
    7.5392    4.4327    7.7488 H   0  0  0  0  0  0  0  0  0  0  0  0
    5.0039    3.2461    5.6320 H   0  0  0  0  0  0  0  0  0  0  0  0
    3.7335    3.4076    6.8510 H   0  0  0  0  0  0  0  0  0  0  0  0
    6.3351    5.2815    4.9296 H   0  0  0  0  0  0  0  0  0  0  0  0
    6.2794    7.7321    4.5654 H   0  0  0  0  0  0  0  0  0  0  0  0
    4.5635    9.1341    5.7151 H   0  0  0  0  0  0  0  0  0  0  0  0
    2.8994    8.0492    7.2279 H   0  0  0  0  0  0  0  0  0  0  0  0
    2.9637    5.5988    7.5967 H   0  0  0  0  0  0  0  0  0  0  0  0
    5.1730    4.9658    9.0156 H   0  0  0  0  0  0  0  0  0  0  0  0
    6.3326    3.7885    9.6726 H   0  0  0  0  0  0  0  0  0  0  0  0
    3.3079    3.4797    9.4275 H   0  0  0  0  0  0  0  0  0  0  0  0
    4.3938    2.8974   10.6956 H   0  0  0  0  0  0  0  0  0  0  0  0
    3.5424    1.4779    8.4331 H   0  0  0  0  0  0  0  0  0  0  0  0
    5.3335    1.1963    7.0599 H   0  0  0  0  0  0  0  0  0  0  0  0
    6.4537    1.4017    8.4179 H   0  0  0  0  0  0  0  0  0  0  0  0
   10.9045    3.5031    4.8174 H   0  0  0  0  0  0  0  0  0  0  0  0
   13.8247    1.6432    1.7642 H   0  0  0  0  0  0  0  0  0  0  0  0
   12.9791   -0.1530   -0.0439 H   0  0  0  0  0  0  0  0  0  0  0  0
  1  2  2  0
  2  3  1  0
  2 25  1  0
  3  4  2  0
  3 27  1  0
  4  5  1  0
  4 28  1  0
  5  6  2  0
  5 24  1  0
  6  7  1  0
  6 29  1  0
  7  8  2  0
  8  9  1  0
  8 22  1  0
 10  9  1  6
  9 30  1  0
 10 11  1  0
 10 18  1  0
 10 21  1  0
 11 12  1  0
 11 31  1  0
 11 32  1  0
 12 13  2  0
 12 17  1  0
 13 14  1  0
 13 33  1  0
 14 15  2  0
 14 34  1  0
 15 16  1  0
 15 35  1  0
 16 17  2  0
 16 36  1  0
 17 37  1  0
 18 19  1  0
 18 38  1  0
 18 39  1  0
 19 20  1  0
 19 40  1  0
 19 41  1  0
 20 21  1  0
 20 42  1  0
 21 43  1  0
 21 44  1  0
 22 23  1  0
 22 24  2  0
 24 45  1  0
 25 26  1  0
 25 46  1  0
 26 47  1  0
M  END

