
     RDKit          3D

 47 48  0  0  0  0  0  0  0  0999 V2000
    4.7486   -0.7504    2.9702 C   0  0  0  0  0  0  0  0  0  0  0  0
    5.5106   -0.8429    1.7722 O   0  0  0  0  0  0  0  0  0  0  0  0
    5.2287   -1.7437    0.8083 C   0  0  0  0  0  0  0  0  0  0  0  0
    5.8301   -1.4887   -0.4443 C   0  0  0  0  0  0  0  0  0  0  0  0
    5.6436   -2.4010   -1.5094 C   0  0  0  0  0  0  0  0  0  0  0  0
    4.7614   -3.4968   -1.3456 C   0  0  0  0  0  0  0  0  0  0  0  0
    4.5848   -4.3480   -2.4120 N   0  0  0  0  0  0  0  0  0  0  0  0
    3.6837   -5.4877   -2.4889 C   0  0  1  0  0  0  0  0  0  0  0  0
    2.2356   -5.0724   -2.8537 C   0  0  0  0  0  0  0  0  0  0  0  0
    2.1267   -4.6321   -4.3234 C   0  0  0  0  0  0  0  0  0  0  0  0
    2.6240   -5.6247   -5.2744 N   0  0  0  0  0  0  0  0  0  0  0  0
    1.7066   -6.7251   -5.5727 C   0  0  0  0  0  0  0  0  0  0  0  0
    0.4920   -6.2472   -6.3228 C   0  0  0  0  0  0  0  0  0  0  0  0
   -0.8036   -6.5325   -6.0948 C   0  0  0  0  0  0  0  0  0  0  0  0
   -1.3123   -7.4143   -4.9809 C   0  0  0  0  0  0  0  0  0  0  0  0
   -1.8834   -5.9771   -6.9915 C   0  0  0  0  0  0  0  0  0  0  0  0
    3.9929   -6.0145   -4.9703 C   0  0  0  0  0  0  0  0  0  0  0  0
    4.2042   -6.5050   -3.5233 C   0  0  0  0  0  0  0  0  0  0  0  0
    4.0864   -3.7221   -0.1120 C   0  0  0  0  0  0  0  0  0  0  0  0
    4.3714   -2.8800    1.0003 C   0  0  0  0  0  0  0  0  0  0  0  0
    4.1421   -3.3636    2.2730 O   0  0  0  0  0  0  0  0  0  0  0  0
    5.0366    0.2039    3.4330 H   0  0  0  0  0  0  0  0  0  0  0  0
    4.9689   -1.5877    3.6475 H   0  0  0  0  0  0  0  0  0  0  0  0
    3.6689   -0.7547    2.7548 H   0  0  0  0  0  0  0  0  0  0  0  0
    6.3269   -0.5268   -0.5955 H   0  0  0  0  0  0  0  0  0  0  0  0
    6.1516   -2.2518   -2.4660 H   0  0  0  0  0  0  0  0  0  0  0  0
    5.1058   -4.1125   -3.2499 H   0  0  0  0  0  0  0  0  0  0  0  0
    3.6826   -5.9557   -1.4924 H   0  0  0  0  0  0  0  0  0  0  0  0
    1.9069   -4.2653   -2.1801 H   0  0  0  0  0  0  0  0  0  0  0  0
    1.5750   -5.9365   -2.6649 H   0  0  0  0  0  0  0  0  0  0  0  0
    2.7046   -3.6998   -4.4628 H   0  0  0  0  0  0  0  0  0  0  0  0
    1.0826   -4.3914   -4.5740 H   0  0  0  0  0  0  0  0  0  0  0  0
    1.4097   -7.3131   -4.6793 H   0  0  0  0  0  0  0  0  0  0  0  0
    2.2610   -7.4283   -6.2216 H   0  0  0  0  0  0  0  0  0  0  0  0
    0.7352   -5.5913   -7.1678 H   0  0  0  0  0  0  0  0  0  0  0  0
   -0.5268   -7.7415   -4.2867 H   0  0  0  0  0  0  0  0  0  0  0  0
   -1.7932   -8.3197   -5.3926 H   0  0  0  0  0  0  0  0  0  0  0  0
   -2.0899   -6.8912   -4.3970 H   0  0  0  0  0  0  0  0  0  0  0  0
   -1.4723   -5.3418   -7.7897 H   0  0  0  0  0  0  0  0  0  0  0  0
   -2.6087   -5.3780   -6.4123 H   0  0  0  0  0  0  0  0  0  0  0  0
   -2.4625   -6.7906   -7.4645 H   0  0  0  0  0  0  0  0  0  0  0  0
    4.6495   -5.1433   -5.1666 H   0  0  0  0  0  0  0  0  0  0  0  0
    4.3139   -6.7932   -5.6809 H   0  0  0  0  0  0  0  0  0  0  0  0
    5.2696   -6.7220   -3.3372 H   0  0  0  0  0  0  0  0  0  0  0  0
    3.6583   -7.4510   -3.3733 H   0  0  0  0  0  0  0  0  0  0  0  0
    3.2841   -4.4585   -0.0319 H   0  0  0  0  0  0  0  0  0  0  0  0
    4.2986   -4.3362    2.2544 H   0  0  0  0  0  0  0  0  0  0  0  0
  1  2  1  0
  1 22  1  0
  1 23  1  0
  1 24  1  0
  2  3  1  0
  3  4  2  0
  3 20  1  0
  4  5  1  0
  4 25  1  0
  5  6  2  0
  5 26  1  0
  6  7  1  0
  6 19  1  0
  7  8  1  0
  7 27  1  0
  8  9  1  0
  8 18  1  0
  8 28  1  1
  9 10  1  0
  9 29  1  0
  9 30  1  0
 10 11  1  0
 10 31  1  0
 10 32  1  0
 11 12  1  0
 11 17  1  0
 12 13  1  0
 12 33  1  0
 12 34  1  0
 13 14  2  0
 13 35  1  0
 14 15  1  0
 14 16  1  0
 15 36  1  0
 15 37  1  0
 15 38  1  0
 16 39  1  0
 16 40  1  0
 16 41  1  0
 17 18  1  0
 17 42  1  0
 17 43  1  0
 18 44  1  0
 18 45  1  0
 19 20  2  0
 19 46  1  0
 20 21  1  0
 21 47  1  0
M  END

