
     RDKit          3D

 40 43  0  0  0  0  0  0  0  0999 V2000
    2.1662    2.1132    4.6162 C   0  0  0  0  0  0  0  0  0  0  0  0
    3.3021    1.9059    3.6151 C   0  0  0  0  0  0  0  0  0  0  0  0
    2.8110    1.7829    2.1626 C   0  0  0  0  0  0  0  0  0  0  0  0
    3.9320    1.4987    1.1883 C   0  0  0  0  0  0  0  0  0  0  0  0
    4.3064    2.4802    0.2326 C   0  0  0  0  0  0  0  0  0  0  0  0
    5.3523    2.2143   -0.6530 C   0  0  0  0  0  0  0  0  0  0  0  0
    5.8396    2.9947   -1.6393 N   0  0  0  0  0  0  0  0  0  0  0  0
    5.3793    4.3449   -1.9209 C   0  0  0  0  0  0  0  0  0  0  0  0
    5.9118    4.8443   -3.2459 C   0  0  0  0  0  0  0  0  0  0  0  0
    6.6888    6.0056   -3.3081 C   0  0  0  0  0  0  0  0  0  0  0  0
    7.1879    6.5050   -4.5291 C   0  0  0  0  0  0  0  0  0  0  0  0
    6.8845    5.7864   -5.6696 C   0  0  0  0  0  0  0  0  0  0  0  0
    6.1120    4.6198   -5.6178 C   0  0  0  0  0  0  0  0  0  0  0  0
    5.6102    4.1261   -4.4299 C   0  0  0  0  0  0  0  0  0  0  0  0
    5.9487    4.1313   -6.8817 O   0  0  0  0  0  0  0  0  0  0  0  0
    6.7553    4.9403   -7.7344 C   0  0  0  0  0  0  0  0  0  0  0  0
    7.2209    6.0478   -6.9659 O   0  0  0  0  0  0  0  0  0  0  0  0
    5.9475    0.9930   -0.4919 N   0  0  0  0  0  0  0  0  0  0  0  0
    6.9830    0.5104   -1.2161 N   0  0  0  0  0  0  0  0  0  0  0  0
    7.1563   -0.6871   -0.6562 C   0  0  0  0  0  0  0  0  0  0  0  0
    6.3261   -1.0099    0.3550 N   0  0  0  0  0  0  0  0  0  0  0  0
    5.5429    0.0641    0.4717 C   0  0  0  0  0  0  0  0  0  0  0  0
    4.5316    0.3187    1.3087 N   0  0  0  0  0  0  0  0  0  0  0  0
    2.5501    2.1950    5.6455 H   0  0  0  0  0  0  0  0  0  0  0  0
    1.4540    1.2715    4.5927 H   0  0  0  0  0  0  0  0  0  0  0  0
    1.5965    3.0331    4.4000 H   0  0  0  0  0  0  0  0  0  0  0  0
    3.8674    0.9926    3.8620 H   0  0  0  0  0  0  0  0  0  0  0  0
    4.0204    2.7424    3.6844 H   0  0  0  0  0  0  0  0  0  0  0  0
    2.2734    2.6984    1.8657 H   0  0  0  0  0  0  0  0  0  0  0  0
    2.0921    0.9478    2.1009 H   0  0  0  0  0  0  0  0  0  0  0  0
    3.7830    3.4334    0.1897 H   0  0  0  0  0  0  0  0  0  0  0  0
    6.6692    2.6396   -2.1091 H   0  0  0  0  0  0  0  0  0  0  0  0
    5.6765    5.0406   -1.1146 H   0  0  0  0  0  0  0  0  0  0  0  0
    4.2743    4.3382   -1.9401 H   0  0  0  0  0  0  0  0  0  0  0  0
    6.9183    6.5446   -2.3856 H   0  0  0  0  0  0  0  0  0  0  0  0
    7.7903    7.4132   -4.5746 H   0  0  0  0  0  0  0  0  0  0  0  0
    5.0057    3.2176   -4.4096 H   0  0  0  0  0  0  0  0  0  0  0  0
    6.1520    5.3035   -8.5827 H   0  0  0  0  0  0  0  0  0  0  0  0
    7.6186    4.3515   -8.1005 H   0  0  0  0  0  0  0  0  0  0  0  0
    7.9392   -1.3562   -1.0160 H   0  0  0  0  0  0  0  0  0  0  0  0
  1  2  1  0
  1 24  1  0
  1 25  1  0
  1 26  1  0
  2  3  1  0
  2 27  1  0
  2 28  1  0
  3  4  1  0
  3 29  1  0
  3 30  1  0
  4  5  1  0
  4 23  2  0
  5  6  2  0
  5 31  1  0
  6  7  1  0
  6 18  1  0
  7  8  1  0
  7 32  1  0
  8  9  1  0
  8 33  1  0
  8 34  1  0
  9 10  2  0
  9 14  1  0
 10 11  1  0
 10 35  1  0
 11 12  2  0
 11 36  1  0
 12 13  1  0
 12 17  1  0
 13 14  2  0
 13 15  1  0
 14 37  1  0
 15 16  1  0
 16 17  1  0
 16 38  1  0
 16 39  1  0
 18 19  1  0
 18 22  1  0
 19 20  2  0
 20 21  1  0
 20 40  1  0
 21 22  2  0
 22 23  1  0
M  END

