
     RDKit          3D

 41 43  0  0  0  0  0  0  0  0999 V2000
    2.1831   -0.5681    1.3129 C   0  0  0  0  0  0  0  0  0  0  0  0
    1.9831   -0.3103   -0.1825 C   0  0  0  0  0  0  0  0  0  0  0  0
    2.6717   -1.3045   -1.1198 C   0  0  1  0  0  0  0  0  0  0  0  0
    4.1304   -1.3916   -0.9783 N   0  0  0  0  0  0  0  0  0  0  0  0
    4.4962   -2.7743   -1.2971 C   0  0  2  0  0  0  0  0  0  0  0  0
    4.9613   -2.9183   -2.7472 C   0  0  0  0  0  0  0  0  0  0  0  0
    4.0818   -3.2173   -3.7954 C   0  0  0  0  0  0  0  0  0  0  0  0
    4.5380   -3.2792   -5.1171 C   0  0  0  0  0  0  0  0  0  0  0  0
    5.8793   -3.0469   -5.3956 C   0  0  0  0  0  0  0  0  0  0  0  0
    6.3387   -3.1074   -6.6483 F   0  0  0  0  0  0  0  0  0  0  0  0
    6.7667   -2.7525   -4.3539 C   0  0  0  0  0  0  0  0  0  0  0  0
    8.0548   -2.5384   -4.6369 F   0  0  0  0  0  0  0  0  0  0  0  0
    6.3136   -2.6898   -3.0430 C   0  0  0  0  0  0  0  0  0  0  0  0
    3.2913   -3.5537   -0.9863 N   0  0  0  0  0  0  0  0  0  0  0  0
    3.2247   -4.9837   -1.0360 C   0  0  1  0  0  0  0  0  0  0  0  0
    4.2255   -5.8129   -0.2630 C   0  0  0  0  0  0  0  0  0  0  0  0
    2.7768   -5.7924    0.1678 C   0  0  1  0  0  0  0  0  0  0  0  0
    2.4225   -5.0774    1.4585 C   0  0  0  0  0  0  0  0  0  0  0  0
    1.9180   -7.0103   -0.1219 C   0  0  0  0  0  0  0  0  0  0  0  0
    2.1726   -2.7519   -0.9537 C   0  0  0  0  0  0  0  0  0  0  0  0
    1.0211   -3.1221   -0.8400 O   0  0  0  0  0  0  0  0  0  0  0  0
    1.6164    0.1642    1.9085 H   0  0  0  0  0  0  0  0  0  0  0  0
    3.2374   -0.4780    1.6254 H   0  0  0  0  0  0  0  0  0  0  0  0
    1.8278   -1.5711    1.5978 H   0  0  0  0  0  0  0  0  0  0  0  0
    2.3196    0.7074   -0.4427 H   0  0  0  0  0  0  0  0  0  0  0  0
    0.9074   -0.3594   -0.4161 H   0  0  0  0  0  0  0  0  0  0  0  0
    2.4231   -1.0105   -2.1577 H   0  0  0  0  0  0  0  0  0  0  0  0
    4.3842   -1.2026   -0.0106 H   0  0  0  0  0  0  0  0  0  0  0  0
    5.3281   -3.0900   -0.6469 H   0  0  0  0  0  0  0  0  0  0  0  0
    3.0269   -3.4085   -3.5912 H   0  0  0  0  0  0  0  0  0  0  0  0
    3.8642   -3.5111   -5.9445 H   0  0  0  0  0  0  0  0  0  0  0  0
    7.0353   -2.4519   -2.2578 H   0  0  0  0  0  0  0  0  0  0  0  0
    2.9150   -5.3867   -2.0090 H   0  0  0  0  0  0  0  0  0  0  0  0
    4.9447   -5.2831    0.3689 H   0  0  0  0  0  0  0  0  0  0  0  0
    4.6295   -6.7044   -0.7511 H   0  0  0  0  0  0  0  0  0  0  0  0
    3.0506   -4.1894    1.6208 H   0  0  0  0  0  0  0  0  0  0  0  0
    2.5620   -5.7516    2.3201 H   0  0  0  0  0  0  0  0  0  0  0  0
    1.3724   -4.7477    1.4393 H   0  0  0  0  0  0  0  0  0  0  0  0
    2.2133   -7.5053   -1.0604 H   0  0  0  0  0  0  0  0  0  0  0  0
    0.8581   -6.7208   -0.2110 H   0  0  0  0  0  0  0  0  0  0  0  0
    2.0028   -7.7532    0.6890 H   0  0  0  0  0  0  0  0  0  0  0  0
  1  2  1  0
  1 22  1  0
  1 23  1  0
  1 24  1  0
  2  3  1  0
  2 25  1  0
  2 26  1  0
  3  4  1  0
  3 20  1  0
  3 27  1  6
  4  5  1  0
  4 28  1  0
  5  6  1  0
  5 14  1  0
  5 29  1  1
  6  7  2  0
  6 13  1  0
  7  8  1  0
  7 30  1  0
  8  9  2  0
  8 31  1  0
  9 10  1  0
  9 11  1  0
 11 12  1  0
 11 13  2  0
 13 32  1  0
 14 15  1  0
 14 20  1  0
 15 16  1  0
 15 17  1  0
 15 33  1  6
 16 17  1  0
 16 34  1  0
 16 35  1  0
 17 18  1  1
 17 19  1  0
 18 36  1  0
 18 37  1  0
 18 38  1  0
 19 39  1  0
 19 40  1  0
 19 41  1  0
 20 21  2  0
M  END

