
     RDKit          3D

 43 43  0  0  0  0  0  0  0  0999 V2000
   -0.0947    8.1890    1.2007 C   0  0  0  0  0  0  0  0  0  0  0  0
    0.3718    7.0709    2.1374 C   0  0  0  0  0  0  0  0  0  0  0  0
    2.1673    6.7437    2.0621 P   0  0  1  0  0  0  0  0  0  0  0  0
    3.0409    7.9423    2.2693 O   0  0  0  0  0  0  0  0  0  0  0  0
    2.2966    5.5889    3.2263 O   0  0  0  0  0  0  0  0  0  0  0  0
    2.6116    5.8164    0.5206 C   0  0  1  0  0  0  0  0  0  0  0  0
    1.6519    4.6746    0.1685 C   0  0  0  0  0  0  0  0  0  0  0  0
    2.8713    6.7844   -0.6319 C   0  0  0  0  0  0  0  0  0  0  0  0
    3.4952    6.0519   -1.6822 O   0  0  0  0  0  0  0  0  0  0  0  0
    3.7814    6.6315   -2.8683 C   0  0  0  0  0  0  0  0  0  0  0  0
    3.5482    8.0074   -3.1302 C   0  0  0  0  0  0  0  0  0  0  0  0
    3.8790    8.5121   -4.4271 C   0  0  0  0  0  0  0  0  0  0  0  0
    4.4511    7.6447   -5.4111 C   0  0  0  0  0  0  0  0  0  0  0  0
    4.8322    8.2136   -6.7386 C   0  0  0  0  0  0  0  0  0  0  0  0
    6.1288    9.0918   -6.7199 C   0  0  1  0  0  0  0  0  0  0  0  0
    7.3549    8.2605   -6.3171 C   0  0  0  0  0  0  0  0  0  0  0  0
    6.2671    9.7620   -8.0006 N   0  0  0  0  0  0  0  0  0  0  0  0
    4.6841    6.2745   -5.1160 C   0  0  0  0  0  0  0  0  0  0  0  0
    4.3403    5.7468   -3.8364 C   0  0  0  0  0  0  0  0  0  0  0  0
   -1.1434    8.4535    1.4059 H   0  0  0  0  0  0  0  0  0  0  0  0
   -0.0337    7.8959    0.1405 H   0  0  0  0  0  0  0  0  0  0  0  0
    0.5201    9.0913    1.3389 H   0  0  0  0  0  0  0  0  0  0  0  0
   -0.1766    6.1296    1.9724 H   0  0  0  0  0  0  0  0  0  0  0  0
    0.2051    7.3508    3.1912 H   0  0  0  0  0  0  0  0  0  0  0  0
    3.1477    5.6740    3.6826 H   0  0  0  0  0  0  0  0  0  0  0  0
    3.5921    5.3853    0.7952 H   0  0  0  0  0  0  0  0  0  0  0  0
    0.6627    5.0540   -0.1361 H   0  0  0  0  0  0  0  0  0  0  0  0
    1.5138    3.9969    1.0243 H   0  0  0  0  0  0  0  0  0  0  0  0
    2.0552    4.0914   -0.6725 H   0  0  0  0  0  0  0  0  0  0  0  0
    3.5292    7.6031   -0.2977 H   0  0  0  0  0  0  0  0  0  0  0  0
    1.9338    7.2281   -1.0107 H   0  0  0  0  0  0  0  0  0  0  0  0
    3.1639    8.6743   -2.3607 H   0  0  0  0  0  0  0  0  0  0  0  0
    3.6817    9.5567   -4.6741 H   0  0  0  0  0  0  0  0  0  0  0  0
    4.0297    8.8760   -7.1051 H   0  0  0  0  0  0  0  0  0  0  0  0
    4.9702    7.4091   -7.4814 H   0  0  0  0  0  0  0  0  0  0  0  0
    5.9772    9.8770   -5.9595 H   0  0  0  0  0  0  0  0  0  0  0  0
    7.5432    7.4615   -7.0553 H   0  0  0  0  0  0  0  0  0  0  0  0
    7.2018    7.7818   -5.3367 H   0  0  0  0  0  0  0  0  0  0  0  0
    8.2556    8.8943   -6.2644 H   0  0  0  0  0  0  0  0  0  0  0  0
    6.5592    9.1158   -8.7349 H   0  0  0  0  0  0  0  0  0  0  0  0
    6.9436   10.5228   -7.9643 H   0  0  0  0  0  0  0  0  0  0  0  0
    5.1153    5.6252   -5.8802 H   0  0  0  0  0  0  0  0  0  0  0  0
    4.4695    4.6962   -3.5784 H   0  0  0  0  0  0  0  0  0  0  0  0
  1  2  1  0
  1 20  1  0
  1 21  1  0
  1 22  1  0
  2  3  1  0
  2 23  1  0
  2 24  1  0
  3  4  2  0
  3  5  1  1
  3  6  1  0
  5 25  1  0
  6  7  1  0
  6  8  1  0
  6 26  1  1
  7 27  1  0
  7 28  1  0
  7 29  1  0
  8  9  1  0
  8 30  1  0
  8 31  1  0
  9 10  1  0
 10 11  2  0
 10 19  1  0
 11 12  1  0
 11 32  1  0
 12 13  2  0
 12 33  1  0
 13 14  1  0
 13 18  1  0
 14 15  1  0
 14 34  1  0
 14 35  1  0
 15 16  1  0
 15 17  1  0
 15 36  1  1
 16 37  1  0
 16 38  1  0
 16 39  1  0
 17 40  1  0
 17 41  1  0
 18 19  2  0
 18 42  1  0
 19 43  1  0
M  END

