
     RDKit          3D

 51 51  0  0  0  0  0  0  0  0999 V2000
    1.4234    0.2835   -0.6400 C   0  0  0  0  0  0  0  0  0  0  0  0
    2.8824    0.1999   -0.2052 C   0  0  0  0  0  0  0  0  0  0  0  0
    3.5754   -0.8687   -0.9092 N   0  0  0  0  0  0  0  0  0  0  0  0
    5.0017   -0.9903   -0.6196 C   0  0  1  0  0  0  0  0  0  0  0  0
    5.1913   -1.4562    0.8198 C   0  0  0  0  0  0  0  0  0  0  0  0
    5.9081   -0.6997    1.7518 C   0  0  0  0  0  0  0  0  0  0  0  0
    6.0782   -1.0645    3.0283 N   0  0  0  0  0  0  0  0  0  0  0  0
    5.5335   -2.1994    3.4410 C   0  0  0  0  0  0  0  0  0  0  0  0
    4.7681   -3.0347    2.5992 C   0  0  0  0  0  0  0  0  0  0  0  0
    4.2552   -4.1527    3.1644 O   0  0  0  0  0  0  0  0  0  0  0  0
    3.4671   -5.0362    2.3805 C   0  0  0  0  0  0  0  0  0  0  0  0
    3.0320   -6.1894    3.2639 C   0  0  0  0  0  0  0  0  0  0  0  0
    4.5940   -2.6462    1.2677 C   0  0  0  0  0  0  0  0  0  0  0  0
    5.6465   -1.9751   -1.6696 C   0  0  1  0  0  0  0  0  0  0  0  0
    4.8864   -1.9754   -2.8740 O   0  0  0  0  0  0  0  0  0  0  0  0
    4.0513   -3.1016   -3.0927 C   0  0  0  0  0  0  0  0  0  0  0  0
    3.3722   -2.9507   -4.4414 C   0  0  0  0  0  0  0  0  0  0  0  0
    7.1329   -1.6888   -2.0544 C   0  0  1  0  0  0  0  0  0  0  0  0
    8.0415   -1.6653   -0.8128 C   0  0  0  0  0  0  0  0  0  0  0  0
    7.6054   -2.8311   -2.9776 C   0  0  0  0  0  0  0  0  0  0  0  0
    7.2538   -0.3547   -2.8162 C   0  0  0  0  0  0  0  0  0  0  0  0
    0.8923    1.0770   -0.0913 H   0  0  0  0  0  0  0  0  0  0  0  0
    0.9076   -0.6723   -0.4574 H   0  0  0  0  0  0  0  0  0  0  0  0
    1.3389    0.5110   -1.7167 H   0  0  0  0  0  0  0  0  0  0  0  0
    2.9322    0.0032    0.8791 H   0  0  0  0  0  0  0  0  0  0  0  0
    3.3731    1.1898   -0.3544 H   0  0  0  0  0  0  0  0  0  0  0  0
    3.4797   -0.7450   -1.9163 H   0  0  0  0  0  0  0  0  0  0  0  0
    5.5081   -0.0051   -0.7079 H   0  0  0  0  0  0  0  0  0  0  0  0
    6.3621    0.2522    1.4511 H   0  0  0  0  0  0  0  0  0  0  0  0
    5.6751   -2.4976    4.4866 H   0  0  0  0  0  0  0  0  0  0  0  0
    4.0565   -5.4019    1.5181 H   0  0  0  0  0  0  0  0  0  0  0  0
    2.5892   -4.4989    1.9745 H   0  0  0  0  0  0  0  0  0  0  0  0
    3.9068   -6.7271    3.6601 H   0  0  0  0  0  0  0  0  0  0  0  0
    2.4168   -6.8987    2.6890 H   0  0  0  0  0  0  0  0  0  0  0  0
    2.4388   -5.8234    4.1157 H   0  0  0  0  0  0  0  0  0  0  0  0
    3.9849   -3.2279    0.5754 H   0  0  0  0  0  0  0  0  0  0  0  0
    5.6112   -2.9890   -1.2324 H   0  0  0  0  0  0  0  0  0  0  0  0
    3.2988   -3.1771   -2.2857 H   0  0  0  0  0  0  0  0  0  0  0  0
    4.6590   -4.0282   -3.0712 H   0  0  0  0  0  0  0  0  0  0  0  0
    2.7439   -2.0464   -4.4676 H   0  0  0  0  0  0  0  0  0  0  0  0
    2.7292   -3.8213   -4.6458 H   0  0  0  0  0  0  0  0  0  0  0  0
    4.1171   -2.8712   -5.2484 H   0  0  0  0  0  0  0  0  0  0  0  0
    7.9345   -2.5816   -0.2100 H   0  0  0  0  0  0  0  0  0  0  0  0
    7.8373   -0.8078   -0.1578 H   0  0  0  0  0  0  0  0  0  0  0  0
    9.0959   -1.5939   -1.1260 H   0  0  0  0  0  0  0  0  0  0  0  0
    7.5546   -3.8065   -2.4650 H   0  0  0  0  0  0  0  0  0  0  0  0
    8.6519   -2.6712   -3.2828 H   0  0  0  0  0  0  0  0  0  0  0  0
    6.9909   -2.8881   -3.8876 H   0  0  0  0  0  0  0  0  0  0  0  0
    6.9955    0.5086   -2.1827 H   0  0  0  0  0  0  0  0  0  0  0  0
    6.5937   -0.3442   -3.6956 H   0  0  0  0  0  0  0  0  0  0  0  0
    8.2898   -0.2067   -3.1613 H   0  0  0  0  0  0  0  0  0  0  0  0
  1  2  1  0
  1 22  1  0
  1 23  1  0
  1 24  1  0
  2  3  1  0
  2 25  1  0
  2 26  1  0
  3  4  1  0
  3 27  1  0
  4  5  1  0
  4 14  1  0
  4 28  1  1
  5  6  2  0
  5 13  1  0
  6  7  1  0
  6 29  1  0
  7  8  2  0
  8  9  1  0
  8 30  1  0
  9 10  1  0
  9 13  2  0
 10 11  1  0
 11 12  1  0
 11 31  1  0
 11 32  1  0
 12 33  1  0
 12 34  1  0
 12 35  1  0
 13 36  1  0
 14 15  1  0
 14 18  1  0
 14 37  1  1
 15 16  1  0
 16 17  1  0
 16 38  1  0
 16 39  1  0
 17 40  1  0
 17 41  1  0
 17 42  1  0
 18 19  1  1
 18 20  1  0
 18 21  1  0
 19 43  1  0
 19 44  1  0
 19 45  1  0
 20 46  1  0
 20 47  1  0
 20 48  1  0
 21 49  1  0
 21 50  1  0
 21 51  1  0
M  END

