
     RDKit          3D

 53 56  0  0  0  0  0  0  0  0999 V2000
    1.4113    0.7213   -2.7672 C   0  0  0  0  0  0  0  0  0  0  0  0
    1.7152    1.1779   -1.3327 C   0  0  1  0  0  0  0  0  0  0  0  0
    0.9348    0.3482   -0.2649 C   0  0  0  0  0  0  0  0  0  0  0  0
    1.4232   -0.9688   -0.1863 O   0  0  0  0  0  0  0  0  0  0  0  0
    2.7657   -1.0203    0.2031 C   0  0  0  0  0  0  0  0  0  0  0  0
    3.6511   -0.2503   -0.8221 C   0  0  0  0  0  0  0  0  0  0  0  0
    3.1224    1.0704   -0.9951 N   0  0  0  0  0  0  0  0  0  0  0  0
    3.8953    2.2441   -0.6888 C   0  0  0  0  0  0  0  0  0  0  0  0
    3.2606    3.3713   -0.8861 N   0  0  0  0  0  0  0  0  0  0  0  0
    3.9508    4.5343   -0.6663 C   0  0  0  0  0  0  0  0  0  0  0  0
    3.2923    5.8030   -0.8772 C   0  0  0  0  0  0  0  0  0  0  0  0
    3.7494    6.9254   -0.1516 C   0  0  0  0  0  0  0  0  0  0  0  0
    3.2326    8.1397   -0.1393 N   0  0  0  0  0  0  0  0  0  0  0  0
    2.1315    8.3465   -0.9307 C   0  0  0  0  0  0  0  0  0  0  0  0
    1.6540    9.6516   -0.9248 N   0  0  0  0  0  0  0  0  0  0  0  0
    1.5669    7.3427   -1.7040 C   0  0  0  0  0  0  0  0  0  0  0  0
    2.1230    6.0361   -1.7311 C   0  0  0  0  0  0  0  0  0  0  0  0
    1.5533    5.0646   -2.6859 C   0  0  1  0  0  0  0  0  0  0  0  0
    2.4815    4.3260   -3.3533 F   0  0  0  0  0  0  0  0  0  0  0  0
    0.7013    4.1192   -2.1299 F   0  0  0  0  0  0  0  0  0  0  0  0
    0.7922    5.6588   -3.6336 F   0  0  0  0  0  0  0  0  0  0  0  0
    5.3006    4.4060   -0.2415 C   0  0  0  0  0  0  0  0  0  0  0  0
    5.8630    3.1369   -0.0267 C   0  0  0  0  0  0  0  0  0  0  0  0
    7.1686    2.9452    0.3766 N   0  0  0  0  0  0  0  0  0  0  0  0
    7.6160    1.6359    0.8446 C   0  0  0  0  0  0  0  0  0  0  0  0
    9.1023    1.4456    0.5588 C   0  0  0  0  0  0  0  0  0  0  0  0
    9.8726    2.4977    1.1000 O   0  0  0  0  0  0  0  0  0  0  0  0
    9.4832    3.7395    0.5575 C   0  0  0  0  0  0  0  0  0  0  0  0
    8.0099    4.0477    0.8279 C   0  0  0  0  0  0  0  0  0  0  0  0
    5.1256    2.0160   -0.2636 N   0  0  0  0  0  0  0  0  0  0  0  0
    0.3466    0.9024   -2.9732 H   0  0  0  0  0  0  0  0  0  0  0  0
    1.6166   -0.3477   -2.9256 H   0  0  0  0  0  0  0  0  0  0  0  0
    1.9952    1.3252   -3.4756 H   0  0  0  0  0  0  0  0  0  0  0  0
    1.4492    2.2358   -1.2317 H   0  0  0  0  0  0  0  0  0  0  0  0
   -0.1238    0.2941   -0.5518 H   0  0  0  0  0  0  0  0  0  0  0  0
    1.0213    0.8580    0.7123 H   0  0  0  0  0  0  0  0  0  0  0  0
    3.0714   -2.0755    0.2317 H   0  0  0  0  0  0  0  0  0  0  0  0
    2.9139   -0.5699    1.2031 H   0  0  0  0  0  0  0  0  0  0  0  0
    3.6028   -0.7979   -1.7789 H   0  0  0  0  0  0  0  0  0  0  0  0
    4.6890   -0.1767   -0.4819 H   0  0  0  0  0  0  0  0  0  0  0  0
    4.5973    6.7866    0.5320 H   0  0  0  0  0  0  0  0  0  0  0  0
    1.9550   10.1798   -0.1124 H   0  0  0  0  0  0  0  0  0  0  0  0
    0.6779    9.7798   -1.1639 H   0  0  0  0  0  0  0  0  0  0  0  0
    0.7043    7.5707   -2.3313 H   0  0  0  0  0  0  0  0  0  0  0  0
    5.8977    5.3037   -0.1180 H   0  0  0  0  0  0  0  0  0  0  0  0
    7.0285    0.8592    0.3433 H   0  0  0  0  0  0  0  0  0  0  0  0
    7.4428    1.5424    1.9368 H   0  0  0  0  0  0  0  0  0  0  0  0
    9.2627    1.3764   -0.5373 H   0  0  0  0  0  0  0  0  0  0  0  0
    9.4584    0.5120    1.0203 H   0  0  0  0  0  0  0  0  0  0  0  0
    9.6625    3.7533   -0.5376 H   0  0  0  0  0  0  0  0  0  0  0  0
   10.1165    4.5112    1.0203 H   0  0  0  0  0  0  0  0  0  0  0  0
    7.7512    4.9705    0.2943 H   0  0  0  0  0  0  0  0  0  0  0  0
    7.8606    4.2313    1.9115 H   0  0  0  0  0  0  0  0  0  0  0  0
  1  2  1  0
  1 31  1  0
  1 32  1  0
  1 33  1  0
  2  3  1  0
  2  7  1  0
  2 34  1  6
  3  4  1  0
  3 35  1  0
  3 36  1  0
  4  5  1  0
  5  6  1  0
  5 37  1  0
  5 38  1  0
  6  7  1  0
  6 39  1  0
  6 40  1  0
  7  8  1  0
  8  9  2  0
  8 30  1  0
  9 10  1  0
 10 11  1  0
 10 22  2  0
 11 12  2  0
 11 17  1  0
 12 13  1  0
 12 41  1  0
 13 14  2  0
 14 15  1  0
 14 16  1  0
 15 42  1  0
 15 43  1  0
 16 17  2  0
 16 44  1  0
 17 18  1  0
 18 19  1  6
 18 20  1  0
 18 21  1  0
 22 23  1  0
 22 45  1  0
 23 24  1  0
 23 30  2  0
 24 25  1  0
 24 29  1  0
 25 26  1  0
 25 46  1  0
 25 47  1  0
 26 27  1  0
 26 48  1  0
 26 49  1  0
 27 28  1  0
 28 29  1  0
 28 50  1  0
 28 51  1  0
 29 52  1  0
 29 53  1  0
M  END

