
     RDKit          3D

 42 44  0  0  0  0  0  0  0  0999 V2000
    0.6900    0.9030    2.3133 N   0  0  0  0  0  0  0  0  0  0  0  0
    1.8270    0.9791    1.4203 C   0  0  0  0  0  0  0  0  0  0  0  0
    3.1352    0.6382    2.0918 C   0  0  0  0  0  0  0  0  0  0  0  0
    3.1686   -0.0975    3.3023 C   0  0  0  0  0  0  0  0  0  0  0  0
    4.3585   -0.4395    3.9019 C   0  0  0  0  0  0  0  0  0  0  0  0
    5.6085   -0.0486    3.3009 C   0  0  0  0  0  0  0  0  0  0  0  0
    6.7675   -0.3522    3.8659 N   0  0  0  0  0  0  0  0  0  0  0  0
    6.9774   -1.3540    5.0217 C   0  0  0  0  0  0  0  0  0  0  0  0
    6.9222   -2.5206    4.6437 O   0  0  0  0  0  0  0  0  0  0  0  0
    7.2260   -0.7740    6.2846 C   0  0  0  0  0  0  0  0  0  0  0  0
    7.2717    0.6469    6.5316 C   0  0  0  0  0  0  0  0  0  0  0  0
    7.5207    1.1473    7.7774 C   0  0  0  0  0  0  0  0  0  0  0  0
    7.7520    0.2862    8.9113 C   0  0  0  0  0  0  0  0  0  0  0  0
    8.0072    0.7842   10.1916 C   0  0  0  0  0  0  0  0  0  0  0  0
    8.2362   -0.0690   11.2896 C   0  0  0  0  0  0  0  0  0  0  0  0
    8.4975    0.4367   12.6274 C   0  0  0  0  0  0  0  0  0  0  0  0
    8.5115    1.6903   12.9264 N   0  0  0  0  0  0  0  0  0  0  0  0
    8.8387    2.0466   14.2032 N   0  0  0  0  0  0  0  0  0  0  0  0
    8.2043   -1.4732   11.0589 C   0  0  0  0  0  0  0  0  0  0  0  0
    7.9550   -1.9968    9.8094 C   0  0  0  0  0  0  0  0  0  0  0  0
    7.7164   -1.1456    8.6808 C   0  0  0  0  0  0  0  0  0  0  0  0
    7.4604   -1.6406    7.3977 C   0  0  0  0  0  0  0  0  0  0  0  0
    5.5669    0.6927    2.0643 C   0  0  0  0  0  0  0  0  0  0  0  0
    4.3632    1.0240    1.4919 C   0  0  0  0  0  0  0  0  0  0  0  0
   -0.1859    0.8580    1.7981 H   0  0  0  0  0  0  0  0  0  0  0  0
    0.6418    1.7132    2.9302 H   0  0  0  0  0  0  0  0  0  0  0  0
    1.9533    1.9521    0.8973 H   0  0  0  0  0  0  0  0  0  0  0  0
    1.6809    0.2397    0.6090 H   0  0  0  0  0  0  0  0  0  0  0  0
    2.2157   -0.3889    3.7455 H   0  0  0  0  0  0  0  0  0  0  0  0
    4.3786   -1.0164    4.8239 H   0  0  0  0  0  0  0  0  0  0  0  0
    7.6060   -0.0967    3.3457 H   0  0  0  0  0  0  0  0  0  0  0  0
    7.1077    1.3473    5.7096 H   0  0  0  0  0  0  0  0  0  0  0  0
    7.5517    2.2291    7.9355 H   0  0  0  0  0  0  0  0  0  0  0  0
    8.0346    1.8636   10.3586 H   0  0  0  0  0  0  0  0  0  0  0  0
    8.6903   -0.3248   13.4107 H   0  0  0  0  0  0  0  0  0  0  0  0
    8.4182    2.9384   14.4475 H   0  0  0  0  0  0  0  0  0  0  0  0
    8.6437    1.3370   14.9186 H   0  0  0  0  0  0  0  0  0  0  0  0
    8.3838   -2.1496   11.9010 H   0  0  0  0  0  0  0  0  0  0  0  0
    7.9373   -3.0800    9.6603 H   0  0  0  0  0  0  0  0  0  0  0  0
    7.4381   -2.7187    7.2282 H   0  0  0  0  0  0  0  0  0  0  0  0
    6.5079    0.9901    1.5969 H   0  0  0  0  0  0  0  0  0  0  0  0
    4.3474    1.5947    0.5600 H   0  0  0  0  0  0  0  0  0  0  0  0
  1  2  1  0
  1 25  1  0
  1 26  1  0
  2  3  1  0
  2 27  1  0
  2 28  1  0
  3  4  2  0
  3 24  1  0
  4  5  1  0
  4 29  1  0
  5  6  2  0
  5 30  1  0
  6  7  1  0
  6 23  1  0
  7  8  1  0
  7 31  1  0
  8  9  2  0
  8 10  1  0
 10 11  2  0
 10 22  1  0
 11 12  1  0
 11 32  1  0
 12 13  2  0
 12 33  1  0
 13 14  1  0
 13 21  1  0
 14 15  2  0
 14 34  1  0
 15 16  1  0
 15 19  1  0
 16 17  2  0
 16 35  1  0
 17 18  1  0
 18 36  1  0
 18 37  1  0
 19 20  2  0
 19 38  1  0
 20 21  1  0
 20 39  1  0
 21 22  2  0
 22 40  1  0
 23 24  2  0
 23 41  1  0
 24 42  1  0
M  END

