
     RDKit          3D

 89 91  0  0  0  0  0  0  0  0999 V2000
    9.5926   -2.4376   -5.9008 C   0  0  0  0  0  0  0  0  0  0  0  0
   10.1517   -1.6215   -4.8719 O   0  0  0  0  0  0  0  0  0  0  0  0
   10.1969   -2.1709   -3.6344 C   0  0  0  0  0  0  0  0  0  0  0  0
    9.7950   -3.2830   -3.3949 O   0  0  0  0  0  0  0  0  0  0  0  0
   10.7633   -1.2144   -2.6320 C   0  0  0  0  0  0  0  0  0  0  0  0
   10.7707   -1.5745   -1.3324 C   0  0  0  0  0  0  0  0  0  0  0  0
   11.1751   -0.7147   -0.1718 C   0  0  0  0  0  0  0  0  0  0  0  0
   10.5200   -1.0870    1.0238 O   0  0  0  0  0  0  0  0  0  0  0  0
   11.1523   -2.1030    1.8064 C   0  0  2  0  0  0  0  0  0  0  0  0
   11.6333   -2.8313    1.1285 H   0  0  0  0  0  0  0  0  0  0  0  0
   10.0368   -2.8328    2.5734 C   0  0  0  0  0  0  0  0  0  0  0  0
    9.1404   -3.6699    1.6880 C   0  0  0  0  0  0  0  0  0  0  0  0
    9.3618   -5.0506    1.5552 C   0  0  0  0  0  0  0  0  0  0  0  0
    8.5555   -5.8345    0.7243 C   0  0  0  0  0  0  0  0  0  0  0  0
    7.5084   -5.2479    0.0085 C   0  0  0  0  0  0  0  0  0  0  0  0
    7.2760   -3.8743    0.1309 C   0  0  0  0  0  0  0  0  0  0  0  0
    8.0841   -3.0941    0.9620 C   0  0  0  0  0  0  0  0  0  0  0  0
   12.2540   -1.4578    2.6922 C   0  0  1  0  0  0  0  0  0  0  0  0
   12.8109   -0.7952    2.0083 H   0  0  0  0  0  0  0  0  0  0  0  0
   11.6548   -0.5525    3.7966 C   0  0  0  0  0  0  0  0  0  0  0  0
   12.5828    0.5510    4.2613 C   0  0  0  0  0  0  0  0  0  0  0  0
   12.8209    1.6677    3.4395 C   0  0  0  0  0  0  0  0  0  0  0  0
   13.6792    2.6924    3.8431 C   0  0  0  0  0  0  0  0  0  0  0  0
   14.3198    2.6235    5.0853 C   0  0  0  0  0  0  0  0  0  0  0  0
   14.0906    1.5232    5.9145 C   0  0  0  0  0  0  0  0  0  0  0  0
   13.2305    0.4977    5.5055 C   0  0  0  0  0  0  0  0  0  0  0  0
   13.3219   -2.4357    3.2324 C   0  0  2  0  0  0  0  0  0  0  0  0
   13.9748   -1.8490    3.9069 H   0  0  0  0  0  0  0  0  0  0  0  0
   14.2000   -3.0365    2.1292 C   0  0  0  0  0  0  0  0  0  0  0  0
   12.6730   -3.4585    3.9913 O   0  0  0  0  0  0  0  0  0  0  0  0
   13.4712   -4.1895    4.9096 C   0  0  0  0  0  0  0  0  0  0  0  0
   13.7563   -3.4618    6.2066 C   0  0  0  0  0  0  0  0  0  0  0  0
   12.7058   -3.1310    7.0848 C   0  0  0  0  0  0  0  0  0  0  0  0
   12.9489   -2.4766    8.2859 C   0  0  0  0  0  0  0  0  0  0  0  0
   14.2643   -2.1295    8.6514 C   0  0  0  0  0  0  0  0  0  0  0  0
   14.4053   -1.5001    9.8449 O   0  0  0  0  0  0  0  0  0  0  0  0
   15.6938   -1.1369   10.2859 C   0  0  0  0  0  0  0  0  0  0  0  0
   15.3223   -2.4481    7.7887 C   0  0  0  0  0  0  0  0  0  0  0  0
   15.0550   -3.1060    6.5805 C   0  0  0  0  0  0  0  0  0  0  0  0
   11.2256    0.0184   -3.1381 N   0  0  0  0  0  0  0  0  0  0  0  0
   12.4607    0.5718   -2.8723 C   0  0  0  0  0  0  0  0  0  0  0  0
   13.2443    0.1674   -2.0398 O   0  0  0  0  0  0  0  0  0  0  0  0
   12.6409    1.6301   -3.6878 O   0  0  0  0  0  0  0  0  0  0  0  0
   13.8582    2.4474   -3.6450 C   0  0  1  0  0  0  0  0  0  0  0  0
   15.0784    1.5906   -3.9979 C   0  0  0  0  0  0  0  0  0  0  0  0
   13.6002    3.4967   -4.7282 C   0  0  0  0  0  0  0  0  0  0  0  0
   13.9949    3.1095   -2.2702 C   0  0  0  0  0  0  0  0  0  0  0  0
    9.6332   -1.8422   -6.8214 H   0  0  0  0  0  0  0  0  0  0  0  0
    8.5522   -2.7070   -5.6639 H   0  0  0  0  0  0  0  0  0  0  0  0
   10.1722   -3.3653   -6.0196 H   0  0  0  0  0  0  0  0  0  0  0  0
   10.4101   -2.5833   -1.1127 H   0  0  0  0  0  0  0  0  0  0  0  0
   10.9060    0.3354   -0.3799 H   0  0  0  0  0  0  0  0  0  0  0  0
   12.2757   -0.7210   -0.0653 H   0  0  0  0  0  0  0  0  0  0  0  0
    9.4373   -2.0755    3.1027 H   0  0  0  0  0  0  0  0  0  0  0  0
   10.5151   -3.4662    3.3304 H   0  0  0  0  0  0  0  0  0  0  0  0
   10.1779   -5.5161    2.1162 H   0  0  0  0  0  0  0  0  0  0  0  0
    8.7452   -6.9079    0.6375 H   0  0  0  0  0  0  0  0  0  0  0  0
    6.8768   -5.8575   -0.6429 H   0  0  0  0  0  0  0  0  0  0  0  0
    6.4599   -3.4069   -0.4269 H   0  0  0  0  0  0  0  0  0  0  0  0
    7.9054   -2.0199    1.0479 H   0  0  0  0  0  0  0  0  0  0  0  0
   11.3514   -1.1723    4.6537 H   0  0  0  0  0  0  0  0  0  0  0  0
   10.7433   -0.0907    3.3859 H   0  0  0  0  0  0  0  0  0  0  0  0
   12.3166    1.7359    2.4706 H   0  0  0  0  0  0  0  0  0  0  0  0
   13.8447    3.5525    3.1884 H   0  0  0  0  0  0  0  0  0  0  0  0
   14.9899    3.4261    5.4048 H   0  0  0  0  0  0  0  0  0  0  0  0
   14.5806    1.4593    6.8897 H   0  0  0  0  0  0  0  0  0  0  0  0
   13.0568   -0.3558    6.1653 H   0  0  0  0  0  0  0  0  0  0  0  0
   14.9976   -3.6679    2.5499 H   0  0  0  0  0  0  0  0  0  0  0  0
   14.6890   -2.2393    1.5480 H   0  0  0  0  0  0  0  0  0  0  0  0
   13.6127   -3.6603    1.4387 H   0  0  0  0  0  0  0  0  0  0  0  0
   14.4238   -4.5065    4.4479 H   0  0  0  0  0  0  0  0  0  0  0  0
   12.8947   -5.1058    5.1172 H   0  0  0  0  0  0  0  0  0  0  0  0
   11.6794   -3.3980    6.8179 H   0  0  0  0  0  0  0  0  0  0  0  0
   12.1383   -2.2239    8.9724 H   0  0  0  0  0  0  0  0  0  0  0  0
   15.5660   -0.6554   11.2648 H   0  0  0  0  0  0  0  0  0  0  0  0
   16.1792   -0.4217    9.5971 H   0  0  0  0  0  0  0  0  0  0  0  0
   16.3519   -2.0169   10.4033 H   0  0  0  0  0  0  0  0  0  0  0  0
   16.3515   -2.1919    8.0407 H   0  0  0  0  0  0  0  0  0  0  0  0
   15.8917   -3.3494    5.9189 H   0  0  0  0  0  0  0  0  0  0  0  0
   10.7952    0.3318   -4.0016 H   0  0  0  0  0  0  0  0  0  0  0  0
   14.9291    1.0929   -4.9690 H   0  0  0  0  0  0  0  0  0  0  0  0
   15.2598    0.8255   -3.2325 H   0  0  0  0  0  0  0  0  0  0  0  0
   15.9706    2.2311   -4.0772 H   0  0  0  0  0  0  0  0  0  0  0  0
   13.4578    3.0156   -5.7078 H   0  0  0  0  0  0  0  0  0  0  0  0
   14.4536    4.1878   -4.7993 H   0  0  0  0  0  0  0  0  0  0  0  0
   12.6966    4.0801   -4.4955 H   0  0  0  0  0  0  0  0  0  0  0  0
   14.1666    2.3617   -1.4856 H   0  0  0  0  0  0  0  0  0  0  0  0
   13.0839    3.6787   -2.0270 H   0  0  0  0  0  0  0  0  0  0  0  0
   14.8430    3.8118   -2.2798 H   0  0  0  0  0  0  0  0  0  0  0  0
  1  2  1  0
  1 48  1  0
  1 49  1  0
  1 50  1  0
  2  3  1  0
  3  4  2  0
  3  5  1  0
  5  6  2  0
  5 40  1  0
  6  7  1  0
  6 51  1  0
  7  8  1  0
  7 52  1  0
  7 53  1  0
  8  9  1  0
  9 10  1  6
  9 11  1  0
  9 18  1  0
 11 12  1  0
 11 54  1  0
 11 55  1  0
 12 13  2  0
 12 17  1  0
 13 14  1  0
 13 56  1  0
 14 15  2  0
 14 57  1  0
 15 16  1  0
 15 58  1  0
 16 17  2  0
 16 59  1  0
 17 60  1  0
 18 19  1  6
 18 20  1  0
 18 27  1  0
 20 21  1  0
 20 61  1  0
 20 62  1  0
 21 22  2  0
 21 26  1  0
 22 23  1  0
 22 63  1  0
 23 24  2  0
 23 64  1  0
 24 25  1  0
 24 65  1  0
 25 26  2  0
 25 66  1  0
 26 67  1  0
 27 28  1  1
 27 29  1  0
 27 30  1  0
 29 68  1  0
 29 69  1  0
 29 70  1  0
 30 31  1  0
 31 32  1  0
 31 71  1  0
 31 72  1  0
 32 33  2  0
 32 39  1  0
 33 34  1  0
 33 73  1  0
 34 35  2  0
 34 74  1  0
 35 36  1  0
 35 38  1  0
 36 37  1  0
 37 75  1  0
 37 76  1  0
 37 77  1  0
 38 39  2  0
 38 78  1  0
 39 79  1  0
 40 41  1  0
 40 80  1  0
 41 42  2  0
 41 43  1  0
 44 43  1  1
 44 45  1  0
 44 46  1  0
 44 47  1  0
 45 81  1  0
 45 82  1  0
 45 83  1  0
 46 84  1  0
 46 85  1  0
 46 86  1  0
 47 87  1  0
 47 88  1  0
 47 89  1  0
M  END

