
     RDKit          3D

 50 51  0  0  0  0  0  0  0  0999 V2000
    0.9951    0.1480    1.0756 C   0  0  0  0  0  0  0  0  0  0  0  0
    1.3704    0.5013   -0.2632 N   0  0  0  0  0  0  0  0  0  0  0  0
    1.3391   -0.6134   -1.3138 C   0  0  0  0  0  0  0  0  0  0  0  0
    1.6246   -0.2565   -2.7097 C   0  0  0  0  0  0  0  0  0  0  0  0
    2.9308   -0.4218   -3.2829 C   0  0  0  0  0  0  0  0  0  0  0  0
    3.2063   -0.0643   -4.5832 C   0  0  0  0  0  0  0  0  0  0  0  0
    2.1909    0.5036   -5.4428 C   0  0  0  0  0  0  0  0  0  0  0  0
    2.4999    0.8659   -6.8692 C   0  0  0  0  0  0  0  0  0  0  0  0
    2.5430   -0.3245   -7.8444 C   0  0  0  0  0  0  0  0  0  0  0  0
    2.9334    0.1025   -9.1896 N   0  0  0  0  0  0  0  0  0  0  0  0
    0.8899    0.6324   -4.8886 C   0  0  0  0  0  0  0  0  0  0  0  0
    0.5888    0.2801   -3.5857 C   0  0  0  0  0  0  0  0  0  0  0  0
    1.7835    1.8408   -0.6423 C   0  0  1  0  0  0  0  0  0  0  0  0
    1.0111    2.9888    0.0397 C   0  0  0  0  0  0  0  0  0  0  0  0
    1.5173    3.4195    1.4255 C   0  0  0  0  0  0  0  0  0  0  0  0
    3.0451    3.6669    1.4996 C   0  0  2  0  0  0  0  0  0  0  0  0
    3.4522    3.8681    2.9687 C   0  0  0  0  0  0  0  0  0  0  0  0
    3.4341    4.9312    0.7076 C   0  0  0  0  0  0  0  0  0  0  0  0
    3.7695    2.4193    0.9350 C   0  0  0  0  0  0  0  0  0  0  0  0
    3.3266    2.0193   -0.4747 C   0  0  0  0  0  0  0  0  0  0  0  0
    0.7272   -0.9165    1.1137 H   0  0  0  0  0  0  0  0  0  0  0  0
    0.1351    0.7496    1.4131 H   0  0  0  0  0  0  0  0  0  0  0  0
    1.8237    0.3443    1.7749 H   0  0  0  0  0  0  0  0  0  0  0  0
    0.3251   -1.0344   -1.1536 H   0  0  0  0  0  0  0  0  0  0  0  0
    2.0425   -1.3583   -0.8934 H   0  0  0  0  0  0  0  0  0  0  0  0
    3.7300   -0.8632   -2.6737 H   0  0  0  0  0  0  0  0  0  0  0  0
    4.2152   -0.2189   -4.9795 H   0  0  0  0  0  0  0  0  0  0  0  0
    3.4768    1.3812   -6.9516 H   0  0  0  0  0  0  0  0  0  0  0  0
    1.7456    1.5856   -7.2435 H   0  0  0  0  0  0  0  0  0  0  0  0
    1.5630   -0.8483   -7.7977 H   0  0  0  0  0  0  0  0  0  0  0  0
    3.2919   -1.0509   -7.4827 H   0  0  0  0  0  0  0  0  0  0  0  0
    2.2296    0.7438   -9.5612 H   0  0  0  0  0  0  0  0  0  0  0  0
    2.9407   -0.6952   -9.8264 H   0  0  0  0  0  0  0  0  0  0  0  0
    0.0876    1.0256   -5.5251 H   0  0  0  0  0  0  0  0  0  0  0  0
   -0.4388    0.3816   -3.2210 H   0  0  0  0  0  0  0  0  0  0  0  0
    1.5917    1.8562   -1.7222 H   0  0  0  0  0  0  0  0  0  0  0  0
   -0.0645    2.7487    0.0764 H   0  0  0  0  0  0  0  0  0  0  0  0
    1.0903    3.8417   -0.6525 H   0  0  0  0  0  0  0  0  0  0  0  0
    1.2518    2.6628    2.1830 H   0  0  0  0  0  0  0  0  0  0  0  0
    0.9819    4.3357    1.7275 H   0  0  0  0  0  0  0  0  0  0  0  0
    2.9371    4.7379    3.4081 H   0  0  0  0  0  0  0  0  0  0  0  0
    4.5370    4.0405    3.0599 H   0  0  0  0  0  0  0  0  0  0  0  0
    3.2014    2.9859    3.5811 H   0  0  0  0  0  0  0  0  0  0  0  0
    2.9383    5.8204    1.1292 H   0  0  0  0  0  0  0  0  0  0  0  0
    3.1596    4.8774   -0.3564 H   0  0  0  0  0  0  0  0  0  0  0  0
    4.5216    5.1021    0.7565 H   0  0  0  0  0  0  0  0  0  0  0  0
    3.6233    1.5779    1.6368 H   0  0  0  0  0  0  0  0  0  0  0  0
    4.8582    2.5992    0.9223 H   0  0  0  0  0  0  0  0  0  0  0  0
    3.8390    1.1093   -0.8153 H   0  0  0  0  0  0  0  0  0  0  0  0
    3.6077    2.8008   -1.1954 H   0  0  0  0  0  0  0  0  0  0  0  0
  1  2  1  0
  1 21  1  0
  1 22  1  0
  1 23  1  0
  2  3  1  0
  2 13  1  0
  3  4  1  0
  3 24  1  0
  3 25  1  0
  4  5  2  0
  4 12  1  0
  5  6  1  0
  5 26  1  0
  6  7  2  0
  6 27  1  0
  7  8  1  0
  7 11  1  0
  8  9  1  0
  8 28  1  0
  8 29  1  0
  9 10  1  0
  9 30  1  0
  9 31  1  0
 10 32  1  0
 10 33  1  0
 11 12  2  0
 11 34  1  0
 12 35  1  0
 13 14  1  0
 13 20  1  0
 13 36  1  6
 14 15  1  0
 14 37  1  0
 14 38  1  0
 15 16  1  0
 15 39  1  0
 15 40  1  0
 16 17  1  1
 16 18  1  0
 16 19  1  0
 17 41  1  0
 17 42  1  0
 17 43  1  0
 18 44  1  0
 18 45  1  0
 18 46  1  0
 19 20  1  0
 19 47  1  0
 19 48  1  0
 20 49  1  0
 20 50  1  0
M  END

