
     RDKit          3D

 36 39  0  0  0  0  0  0  0  0999 V2000
    1.7148    0.0048    0.9385 O   0  0  0  0  0  0  0  0  0  0  0  0
    2.4563   -0.3690    0.0605 C   0  0  0  0  0  0  0  0  0  0  0  0
    2.8176   -1.6384   -0.1214 O   0  0  0  0  0  0  0  0  0  0  0  0
    3.0592    0.5756   -0.9307 C   0  0  0  0  0  0  0  0  0  0  0  0
    3.8548    0.0420   -1.8465 N   0  0  0  0  0  0  0  0  0  0  0  0
    4.4502    0.7599   -2.7822 N   0  0  0  0  0  0  0  0  0  0  0  0
    4.2647    2.0904   -2.8314 C   0  0  0  0  0  0  0  0  0  0  0  0
    4.8932    2.7931   -3.8106 N   0  0  0  0  0  0  0  0  0  0  0  0
    5.7379    2.3305   -4.8313 C   0  0  0  0  0  0  0  0  0  0  0  0
    6.3344    3.1996   -5.7991 C   0  0  0  0  0  0  0  0  0  0  0  0
    7.0919    2.4070   -6.6392 C   0  0  0  0  0  0  0  0  0  0  0  0
    6.9724    1.1121   -6.2146 N   0  0  0  0  0  0  0  0  0  0  0  0
    7.4210    0.3146   -6.6449 H   0  0  0  0  0  0  0  0  0  0  0  0
    6.1523    1.0354   -5.1132 C   0  0  0  0  0  0  0  0  0  0  0  0
    3.4262    2.7689   -1.8817 C   0  0  0  0  0  0  0  0  0  0  0  0
    3.0799    4.1485   -1.7354 C   0  0  0  0  0  0  0  0  0  0  0  0
    2.2210    4.3757   -0.6829 C   0  0  0  0  0  0  0  0  0  0  0  0
    1.6572    5.6612   -0.2431 C   0  0  0  0  0  0  0  0  0  0  0  0
    0.4339    5.7254    0.4539 C   0  0  0  0  0  0  0  0  0  0  0  0
   -0.0924    6.9545    0.8548 C   0  0  0  0  0  0  0  0  0  0  0  0
    0.5790    8.1463    0.5721 C   0  0  0  0  0  0  0  0  0  0  0  0
    1.7886    8.0736   -0.1171 C   0  0  0  0  0  0  0  0  0  0  0  0
    2.4533    9.2052   -0.3890 F   0  0  0  0  0  0  0  0  0  0  0  0
    2.3374    6.8627   -0.5228 C   0  0  0  0  0  0  0  0  0  0  0  0
    1.8208    2.8854    0.1713 S   0  0  0  0  0  0  0  0  0  0  0  0
    2.8098    1.9634   -0.9126 C   0  0  0  0  0  0  0  0  0  0  0  0
    3.4182   -1.6353   -0.9011 H   0  0  0  0  0  0  0  0  0  0  0  0
    4.7341    3.7914   -3.8145 H   0  0  0  0  0  0  0  0  0  0  0  0
    6.2178    4.2801   -5.8675 H   0  0  0  0  0  0  0  0  0  0  0  0
    7.7009    2.6731   -7.4999 H   0  0  0  0  0  0  0  0  0  0  0  0
    5.9178    0.1052   -4.6115 H   0  0  0  0  0  0  0  0  0  0  0  0
    3.4192    4.9490   -2.3941 H   0  0  0  0  0  0  0  0  0  0  0  0
   -0.1186    4.8081    0.6675 H   0  0  0  0  0  0  0  0  0  0  0  0
   -1.0436    6.9857    1.3913 H   0  0  0  0  0  0  0  0  0  0  0  0
    0.1887    9.1193    0.8757 H   0  0  0  0  0  0  0  0  0  0  0  0
    3.3027    6.8701   -1.0306 H   0  0  0  0  0  0  0  0  0  0  0  0
  1  2  2  0
  2  3  1  0
  2  4  1  0
  3 27  1  0
  4  5  2  0
  4 26  1  0
  5  6  1  0
  6  7  2  0
  7  8  1  0
  7 15  1  0
  8  9  1  0
  8 28  1  0
  9 10  1  0
  9 14  2  0
 10 11  2  0
 10 29  1  0
 11 12  1  0
 11 30  1  0
 12 13  1  0
 12 14  1  0
 14 31  1  0
 15 16  1  0
 15 26  2  0
 16 17  2  0
 16 32  1  0
 17 18  1  0
 17 25  1  0
 18 19  2  0
 18 24  1  0
 19 20  1  0
 19 33  1  0
 20 21  2  0
 20 34  1  0
 21 22  1  0
 21 35  1  0
 22 23  1  0
 22 24  2  0
 24 36  1  0
 25 26  1  0
M  END

