
     RDKit          3D

 59 65  0  0  0  0  0  0  0  0999 V2000
    3.7484    1.9742   -1.0719 C   0  0  0  0  0  0  0  0  0  0  0  0
    4.0463    0.6748   -0.6103 O   0  0  0  0  0  0  0  0  0  0  0  0
    4.0916   -0.3511   -1.4925 C   0  0  0  0  0  0  0  0  0  0  0  0
    4.4087   -1.6148   -0.9619 C   0  0  0  0  0  0  0  0  0  0  0  0
    4.4746   -2.7309   -1.7838 C   0  0  0  0  0  0  0  0  0  0  0  0
    4.2281   -2.6319   -3.1706 C   0  0  0  0  0  0  0  0  0  0  0  0
    4.3153   -3.7887   -4.0885 C   0  0  0  0  0  0  0  0  0  0  0  0
    4.0259   -5.1036   -3.8444 C   0  0  0  0  0  0  0  0  0  0  0  0
    3.4709   -5.5652   -2.5365 C   0  0  0  0  0  0  0  0  0  0  0  0
    2.1654   -5.2173   -2.1387 C   0  0  0  0  0  0  0  0  0  0  0  0
    1.6380   -5.6553   -0.9291 C   0  0  0  0  0  0  0  0  0  0  0  0
    2.4018   -6.4677   -0.0725 C   0  0  0  0  0  0  0  0  0  0  0  0
    1.8043   -6.8477    1.0841 O   0  0  0  0  0  0  0  0  0  0  0  0
    2.5076   -7.6681    1.9892 C   0  0  0  0  0  0  0  0  0  0  0  0
    3.7022   -6.8320   -0.4550 C   0  0  0  0  0  0  0  0  0  0  0  0
    4.2181   -6.3822   -1.6759 C   0  0  0  0  0  0  0  0  0  0  0  0
    4.2107   -6.0839   -4.9234 C   0  0  0  0  0  0  0  0  0  0  0  0
    3.9298   -7.4511   -4.7865 C   0  0  0  0  0  0  0  0  0  0  0  0
    4.1256   -8.3340   -5.8583 C   0  0  0  0  0  0  0  0  0  0  0  0
    4.5951   -7.8821   -7.0859 C   0  0  0  0  0  0  0  0  0  0  0  0
    4.8726   -6.5141   -7.2702 C   0  0  0  0  0  0  0  0  0  0  0  0
    4.6757   -5.6219   -6.1856 C   0  0  0  0  0  0  0  0  0  0  0  0
    4.9339   -4.2194   -6.3717 C   0  0  0  0  0  0  0  0  0  0  0  0
    5.3728   -3.6983   -7.5590 C   0  0  0  0  0  0  0  0  0  0  0  0
    5.5943   -4.5618   -8.6802 C   0  0  0  0  0  0  0  0  0  0  0  0
    6.0249   -4.0461   -9.8330 N   0  0  0  0  0  0  0  0  0  0  0  0
    6.2240   -4.8870  -10.8645 C   0  0  0  0  0  0  0  0  0  0  0  0
    6.6849   -4.3832  -12.1183 C   0  0  0  0  0  0  0  0  0  0  0  0
    6.8913   -5.2382  -13.1764 C   0  0  0  0  0  0  0  0  0  0  0  0
    6.6502   -6.6363  -13.0424 C   0  0  0  0  0  0  0  0  0  0  0  0
    6.2050   -7.1576  -11.8489 C   0  0  0  0  0  0  0  0  0  0  0  0
    5.9803   -6.3017  -10.7313 C   0  0  0  0  0  0  0  0  0  0  0  0
    5.5437   -6.8151   -9.5634 N   0  0  0  0  0  0  0  0  0  0  0  0
    5.3484   -5.9872   -8.5489 C   0  0  0  0  0  0  0  0  0  0  0  0
    4.7384   -3.3714   -5.3259 O   0  0  0  0  0  0  0  0  0  0  0  0
    3.9325   -1.3586   -3.6894 C   0  0  0  0  0  0  0  0  0  0  0  0
    3.8553   -0.2305   -2.8707 C   0  0  0  0  0  0  0  0  0  0  0  0
    3.7681    2.6307   -0.1917 H   0  0  0  0  0  0  0  0  0  0  0  0
    2.7465    2.0264   -1.5347 H   0  0  0  0  0  0  0  0  0  0  0  0
    4.4963    2.3322   -1.8021 H   0  0  0  0  0  0  0  0  0  0  0  0
    4.6090   -1.6917    0.1085 H   0  0  0  0  0  0  0  0  0  0  0  0
    4.7394   -3.6913   -1.3444 H   0  0  0  0  0  0  0  0  0  0  0  0
    1.5574   -4.5880   -2.7929 H   0  0  0  0  0  0  0  0  0  0  0  0
    0.6265   -5.3840   -0.6201 H   0  0  0  0  0  0  0  0  0  0  0  0
    1.8349   -7.8454    2.8391 H   0  0  0  0  0  0  0  0  0  0  0  0
    3.4279   -7.1803    2.3585 H   0  0  0  0  0  0  0  0  0  0  0  0
    2.7780   -8.6406    1.5392 H   0  0  0  0  0  0  0  0  0  0  0  0
    4.3221   -7.4603    0.1849 H   0  0  0  0  0  0  0  0  0  0  0  0
    5.2345   -6.6700   -1.9572 H   0  0  0  0  0  0  0  0  0  0  0  0
    3.5524   -7.8312   -3.8371 H   0  0  0  0  0  0  0  0  0  0  0  0
    3.9004   -9.3950   -5.7226 H   0  0  0  0  0  0  0  0  0  0  0  0
    4.7501   -8.5595   -7.9263 H   0  0  0  0  0  0  0  0  0  0  0  0
    5.5637   -2.6313   -7.6700 H   0  0  0  0  0  0  0  0  0  0  0  0
    6.8630   -3.3087  -12.1961 H   0  0  0  0  0  0  0  0  0  0  0  0
    7.2444   -4.8462  -14.1338 H   0  0  0  0  0  0  0  0  0  0  0  0
    6.8217   -7.2946  -13.8978 H   0  0  0  0  0  0  0  0  0  0  0  0
    6.0117   -8.2244  -11.7178 H   0  0  0  0  0  0  0  0  0  0  0  0
    3.7562   -1.2472   -4.7599 H   0  0  0  0  0  0  0  0  0  0  0  0
    3.6134    0.7333   -3.3188 H   0  0  0  0  0  0  0  0  0  0  0  0
  1  2  1  0
  1 38  1  0
  1 39  1  0
  1 40  1  0
  2  3  1  0
  3  4  2  0
  3 37  1  0
  4  5  1  0
  4 41  1  0
  5  6  2  0
  5 42  1  0
  6  7  1  0
  6 36  1  0
  7  8  2  0
  7 35  1  0
  8  9  1  0
  8 17  1  0
  9 10  2  0
  9 16  1  0
 10 11  1  0
 10 43  1  0
 11 12  2  0
 11 44  1  0
 12 13  1  0
 12 15  1  0
 13 14  1  0
 14 45  1  0
 14 46  1  0
 14 47  1  0
 15 16  2  0
 15 48  1  0
 16 49  1  0
 17 18  2  0
 17 22  1  0
 18 19  1  0
 18 50  1  0
 19 20  2  0
 19 51  1  0
 20 21  1  0
 20 52  1  0
 21 22  2  0
 21 34  1  0
 22 23  1  0
 23 24  2  0
 23 35  1  0
 24 25  1  0
 24 53  1  0
 25 26  1  0
 25 34  2  0
 26 27  2  0
 27 28  1  0
 27 32  1  0
 28 29  2  0
 28 54  1  0
 29 30  1  0
 29 55  1  0
 30 31  2  0
 30 56  1  0
 31 32  1  0
 31 57  1  0
 32 33  2  0
 33 34  1  0
 36 37  2  0
 36 58  1  0
 37 59  1  0
M  END

