
     RDKit          3D

216220  0  0  0  0  0  0  0  0999 V2000
   20.3572   -4.0348    1.9874 C   0  0  0  0  0  0  0  0  0  0  0  0
   19.8415   -2.5978    2.0758 C   0  0  0  0  0  0  0  0  0  0  0  0
   18.3595   -2.5001    2.4512 C   0  0  0  0  0  0  0  0  0  0  0  0
   17.8357   -1.0642    2.5437 C   0  0  0  0  0  0  0  0  0  0  0  0
   16.3546   -0.9671    2.9207 C   0  0  0  0  0  0  0  0  0  0  0  0
   15.8347    0.4706    3.0157 C   0  0  0  0  0  0  0  0  0  0  0  0
   14.3542    0.5615    3.3947 C   0  0  0  0  0  0  0  0  0  0  0  0
   13.8558    1.9952    3.4893 C   0  0  0  0  0  0  0  0  0  0  0  0
   12.4855    1.9708    3.8502 O   0  0  0  0  0  0  0  0  0  0  0  0
   11.7986    3.1324    4.0089 C   0  0  0  0  0  0  0  0  0  0  0  0
   12.3571    4.3889    3.8319 C   0  0  0  0  0  0  0  0  0  0  0  0
   11.6271    5.5998    4.0127 C   0  0  0  0  0  0  0  0  0  0  0  0
   12.3431    6.8285    3.8169 C   0  0  0  0  0  0  0  0  0  0  0  0
   11.9285    8.1265    4.0574 C   0  0  0  0  0  0  0  0  0  0  0  0
   12.6393    9.3563    3.8699 C   0  0  0  0  0  0  0  0  0  0  0  0
   11.9939   10.5496    4.3050 C   0  0  0  0  0  0  0  0  0  0  0  0
   12.5511   11.8136    4.1995 C   0  0  0  0  0  0  0  0  0  0  0  0
   11.9057   12.9407    4.5830 O   0  0  0  0  0  0  0  0  0  0  0  0
   10.5752   12.8723    5.0801 C   0  0  0  0  0  0  0  0  0  0  0  0
   10.0364   14.2848    5.2426 C   0  0  0  0  0  0  0  0  0  0  0  0
    9.8795   15.0468    3.9230 C   0  0  0  0  0  0  0  0  0  0  0  0
    9.3131   16.4589    4.0928 C   0  0  0  0  0  0  0  0  0  0  0  0
    9.1321   17.2126    2.7720 C   0  0  0  0  0  0  0  0  0  0  0  0
    8.5729   18.6285    2.9360 C   0  0  0  0  0  0  0  0  0  0  0  0
    8.3872   19.3811    1.6146 C   0  0  0  0  0  0  0  0  0  0  0  0
    7.8279   20.7938    1.7878 C   0  0  0  0  0  0  0  0  0  0  0  0
   13.8720   11.9762    3.6395 C   0  0  0  0  0  0  0  0  0  0  0  0
   14.5878   13.2086    3.5111 C   0  0  0  0  0  0  0  0  0  0  0  0
   14.3120   14.4503    4.0569 C   0  0  0  0  0  0  0  0  0  0  0  0
   15.0913   15.6371    3.8649 C   0  0  0  0  0  0  0  0  0  0  0  0
   16.1493   15.7367    2.9181 C   0  0  0  0  0  0  0  0  0  0  0  0
   16.8905   16.8965    2.7533 C   0  0  0  0  0  0  0  0  0  0  0  0
   17.8989   17.0243    1.8516 O   0  0  0  0  0  0  0  0  0  0  0  0
   18.2582   15.9368    1.0177 C   0  0  0  0  0  0  0  0  0  0  0  0
   19.4143   16.3776    0.1333 C   0  0  0  0  0  0  0  0  0  0  0  0
   19.8966   15.2809   -0.8202 C   0  0  0  0  0  0  0  0  0  0  0  0
   21.0600   15.7238   -1.7126 C   0  0  0  0  0  0  0  0  0  0  0  0
   21.5580   14.6375   -2.6705 C   0  0  0  0  0  0  0  0  0  0  0  0
   22.7204   15.0858   -3.5608 C   0  0  0  0  0  0  0  0  0  0  0  0
   23.2262   14.0015   -4.5179 C   0  0  0  0  0  0  0  0  0  0  0  0
   24.3863   14.4593   -5.4028 C   0  0  0  0  0  0  0  0  0  0  0  0
   16.6140   18.0605    3.5467 C   0  0  0  0  0  0  0  0  0  0  0  0
   17.3969   19.2577    3.3526 C   0  0  0  0  0  0  0  0  0  0  0  0
   17.2552   20.4475    4.0103 C   0  0  0  0  0  0  0  0  0  0  0  0
   18.0508   21.6450    3.8004 C   0  0  0  0  0  0  0  0  0  0  0  0
   19.1076   21.7486    2.8639 C   0  0  0  0  0  0  0  0  0  0  0  0
   19.8045   22.9475    2.7423 C   0  0  0  0  0  0  0  0  0  0  0  0
   19.5477   24.0470    3.4639 N   0  0  0  0  0  0  0  0  0  0  0  0
   18.5518   23.9601    4.3526 C   0  0  0  0  0  0  0  0  0  0  0  0
   17.7896   22.8110    4.5565 C   0  0  0  0  0  0  0  0  0  0  0  0
   15.5628   17.9649    4.4911 C   0  0  0  0  0  0  0  0  0  0  0  0
   14.8155   16.8053    4.6567 C   0  0  0  0  0  0  0  0  0  0  0  0
   13.8106   16.6878    5.5604 O   0  0  0  0  0  0  0  0  0  0  0  0
   13.5277   17.7483    6.4598 C   0  0  0  0  0  0  0  0  0  0  0  0
   12.4071   17.3013    7.3849 C   0  0  0  0  0  0  0  0  0  0  0  0
   12.0250   18.3536    8.4296 C   0  0  0  0  0  0  0  0  0  0  0  0
   10.8773   17.9060    9.3398 C   0  0  0  0  0  0  0  0  0  0  0  0
   10.4804   18.9374   10.4000 C   0  0  0  0  0  0  0  0  0  0  0  0
    9.3222   18.4848   11.2936 C   0  0  0  0  0  0  0  0  0  0  0  0
    8.9199   19.5082   12.3603 C   0  0  0  0  0  0  0  0  0  0  0  0
    7.7587   19.0476   13.2423 C   0  0  0  0  0  0  0  0  0  0  0  0
   14.5020   10.7885    3.1684 C   0  0  0  0  0  0  0  0  0  0  0  0
   13.9406    9.5250    3.2693 C   0  0  0  0  0  0  0  0  0  0  0  0
   14.5596    8.4058    2.8207 O   0  0  0  0  0  0  0  0  0  0  0  0
   15.8257    8.4888    2.1834 C   0  0  0  0  0  0  0  0  0  0  0  0
   16.2512    7.0873    1.7738 C   0  0  0  0  0  0  0  0  0  0  0  0
   17.6053    7.0601    1.0594 C   0  0  0  0  0  0  0  0  0  0  0  0
   18.0492    5.6523    0.6503 C   0  0  0  0  0  0  0  0  0  0  0  0
   19.4022    5.6125   -0.0658 C   0  0  0  0  0  0  0  0  0  0  0  0
   19.8470    4.2040   -0.4700 C   0  0  0  0  0  0  0  0  0  0  0  0
   21.2008    4.1602   -1.1855 C   0  0  0  0  0  0  0  0  0  0  0  0
   21.6377    2.7494   -1.5825 C   0  0  0  0  0  0  0  0  0  0  0  0
   10.2389    5.4605    4.3670 C   0  0  0  0  0  0  0  0  0  0  0  0
    9.5161    6.6025    4.4923 O   0  0  0  0  0  0  0  0  0  0  0  0
    8.1247    6.5522    4.7776 C   0  0  0  0  0  0  0  0  0  0  0  0
    7.5597    7.9630    4.6974 C   0  0  0  0  0  0  0  0  0  0  0  0
    7.6063    8.5723    3.2928 C   0  0  0  0  0  0  0  0  0  0  0  0
    7.0868   10.0113    3.2255 C   0  0  0  0  0  0  0  0  0  0  0  0
    7.0969   10.6006    1.8120 C   0  0  0  0  0  0  0  0  0  0  0  0
    6.6125   12.0515    1.7364 C   0  0  0  0  0  0  0  0  0  0  0  0
    6.5986   12.6273    0.3170 C   0  0  0  0  0  0  0  0  0  0  0  0
    6.1270   14.0805    0.2489 C   0  0  0  0  0  0  0  0  0  0  0  0
    9.6850    4.1989    4.5504 C   0  0  0  0  0  0  0  0  0  0  0  0
   10.4226    3.0024    4.3855 C   0  0  0  0  0  0  0  0  0  0  0  0
    9.8525    1.6877    4.5706 C   0  0  0  0  0  0  0  0  0  0  0  0
    8.5712    1.3921    4.9386 C   0  0  0  0  0  0  0  0  0  0  0  0
    8.0121    0.0612    5.1136 C   0  0  0  0  0  0  0  0  0  0  0  0
    8.7315   -1.1403    4.9104 C   0  0  0  0  0  0  0  0  0  0  0  0
    8.0963   -2.3638    5.1055 C   0  0  0  0  0  0  0  0  0  0  0  0
    6.8177   -2.4987    5.4819 N   0  0  0  0  0  0  0  0  0  0  0  0
    6.1284   -1.3695    5.6768 C   0  0  0  0  0  0  0  0  0  0  0  0
    6.6644   -0.0934    5.5106 C   0  0  0  0  0  0  0  0  0  0  0  0
   21.4246   -4.0669    1.7163 H   0  0  0  0  0  0  0  0  0  0  0  0
   19.8040   -4.6135    1.2286 H   0  0  0  0  0  0  0  0  0  0  0  0
   20.2425   -4.5618    2.9496 H   0  0  0  0  0  0  0  0  0  0  0  0
   20.0053   -2.0871    1.1091 H   0  0  0  0  0  0  0  0  0  0  0  0
   20.4405   -2.0357    2.8155 H   0  0  0  0  0  0  0  0  0  0  0  0
   18.1945   -3.0117    3.4180 H   0  0  0  0  0  0  0  0  0  0  0  0
   17.7586   -3.0611    1.7111 H   0  0  0  0  0  0  0  0  0  0  0  0
   18.0002   -0.5530    1.5766 H   0  0  0  0  0  0  0  0  0  0  0  0
   18.4374   -0.5038    3.2836 H   0  0  0  0  0  0  0  0  0  0  0  0
   16.1887   -1.4780    3.8871 H   0  0  0  0  0  0  0  0  0  0  0  0
   15.7510   -1.5241    2.1807 H   0  0  0  0  0  0  0  0  0  0  0  0
   16.0002    0.9810    2.0485 H   0  0  0  0  0  0  0  0  0  0  0  0
   16.4395    1.0267    3.7561 H   0  0  0  0  0  0  0  0  0  0  0  0
   14.1792    0.0650    4.3647 H   0  0  0  0  0  0  0  0  0  0  0  0
   13.7386    0.0230    2.6537 H   0  0  0  0  0  0  0  0  0  0  0  0
   13.9835    2.5165    2.5209 H   0  0  0  0  0  0  0  0  0  0  0  0
   14.4359    2.5590    4.2451 H   0  0  0  0  0  0  0  0  0  0  0  0
   13.4054    4.4836    3.5519 H   0  0  0  0  0  0  0  0  0  0  0  0
   13.3623    6.6946    3.4567 H   0  0  0  0  0  0  0  0  0  0  0  0
   10.9299    8.2537    4.4729 H   0  0  0  0  0  0  0  0  0  0  0  0
   11.0043   10.4335    4.7436 H   0  0  0  0  0  0  0  0  0  0  0  0
   10.5686   12.3335    6.0459 H   0  0  0  0  0  0  0  0  0  0  0  0
    9.9435   12.3018    4.3737 H   0  0  0  0  0  0  0  0  0  0  0  0
   10.6990   14.8415    5.9274 H   0  0  0  0  0  0  0  0  0  0  0  0
    9.0584   14.2074    5.7507 H   0  0  0  0  0  0  0  0  0  0  0  0
    9.2193   14.4678    3.2500 H   0  0  0  0  0  0  0  0  0  0  0  0
   10.8589   15.0989    3.4182 H   0  0  0  0  0  0  0  0  0  0  0  0
    9.9807   17.0407    4.7551 H   0  0  0  0  0  0  0  0  0  0  0  0
    8.3412   16.4055    4.6188 H   0  0  0  0  0  0  0  0  0  0  0  0
    8.4623   16.6309    2.1110 H   0  0  0  0  0  0  0  0  0  0  0  0
   10.1031   17.2609    2.2454 H   0  0  0  0  0  0  0  0  0  0  0  0
    9.2435   19.2116    3.5950 H   0  0  0  0  0  0  0  0  0  0  0  0
    7.6030   18.5796    3.4661 H   0  0  0  0  0  0  0  0  0  0  0  0
    7.7177   18.7974    0.9566 H   0  0  0  0  0  0  0  0  0  0  0  0
    9.3567   19.4301    1.0862 H   0  0  0  0  0  0  0  0  0  0  0  0
    6.8406   20.7771    2.2798 H   0  0  0  0  0  0  0  0  0  0  0  0
    7.7074   21.3039    0.8188 H   0  0  0  0  0  0  0  0  0  0  0  0
    8.4939   21.4156    2.4096 H   0  0  0  0  0  0  0  0  0  0  0  0
   15.5150   13.1087    2.9370 H   0  0  0  0  0  0  0  0  0  0  0  0
   13.4541   14.5469    4.7166 H   0  0  0  0  0  0  0  0  0  0  0  0
   16.3581   14.8728    2.2908 H   0  0  0  0  0  0  0  0  0  0  0  0
   17.3916   15.6281    0.4016 H   0  0  0  0  0  0  0  0  0  0  0  0
   18.5494   15.0654    1.6357 H   0  0  0  0  0  0  0  0  0  0  0  0
   20.2444   16.7076    0.7814 H   0  0  0  0  0  0  0  0  0  0  0  0
   19.0965   17.2652   -0.4405 H   0  0  0  0  0  0  0  0  0  0  0  0
   19.0559   14.9478   -1.4570 H   0  0  0  0  0  0  0  0  0  0  0  0
   20.2031   14.3924   -0.2372 H   0  0  0  0  0  0  0  0  0  0  0  0
   21.8981   16.0609   -1.0751 H   0  0  0  0  0  0  0  0  0  0  0  0
   20.7525   16.6117   -2.2952 H   0  0  0  0  0  0  0  0  0  0  0  0
   20.7193   14.2996   -3.3076 H   0  0  0  0  0  0  0  0  0  0  0  0
   21.8665   13.7498   -2.0871 H   0  0  0  0  0  0  0  0  0  0  0  0
   23.5573   15.4275   -2.9233 H   0  0  0  0  0  0  0  0  0  0  0  0
   22.4108   15.9720   -4.1460 H   0  0  0  0  0  0  0  0  0  0  0  0
   22.3891   13.6599   -5.1539 H   0  0  0  0  0  0  0  0  0  0  0  0
   23.5361   13.1169   -3.9317 H   0  0  0  0  0  0  0  0  0  0  0  0
   24.0963   15.3170   -6.0328 H   0  0  0  0  0  0  0  0  0  0  0  0
   24.7265   13.6545   -6.0740 H   0  0  0  0  0  0  0  0  0  0  0  0
   25.2522   14.7754   -4.7969 H   0  0  0  0  0  0  0  0  0  0  0  0
   18.1746   19.1714    2.5924 H   0  0  0  0  0  0  0  0  0  0  0  0
   16.4769   20.5480    4.7738 H   0  0  0  0  0  0  0  0  0  0  0  0
   19.3855   20.9020    2.2332 H   0  0  0  0  0  0  0  0  0  0  0  0
   20.6227   23.0249    2.0152 H   0  0  0  0  0  0  0  0  0  0  0  0
   18.3438   24.8617    4.9424 H   0  0  0  0  0  0  0  0  0  0  0  0
   16.9891   22.8134    5.3016 H   0  0  0  0  0  0  0  0  0  0  0  0
   15.3433   18.8368    5.1032 H   0  0  0  0  0  0  0  0  0  0  0  0
   13.2313   18.6549    5.8983 H   0  0  0  0  0  0  0  0  0  0  0  0
   14.4356   18.0016    7.0394 H   0  0  0  0  0  0  0  0  0  0  0  0
   12.7185   16.3675    7.8840 H   0  0  0  0  0  0  0  0  0  0  0  0
   11.5274   17.0463    6.7693 H   0  0  0  0  0  0  0  0  0  0  0  0
   11.7417   19.2945    7.9223 H   0  0  0  0  0  0  0  0  0  0  0  0
   12.9076   18.5993    9.0486 H   0  0  0  0  0  0  0  0  0  0  0  0
   11.1581   16.9597    9.8382 H   0  0  0  0  0  0  0  0  0  0  0  0
    9.9956   17.6650    8.7174 H   0  0  0  0  0  0  0  0  0  0  0  0
   10.2084   19.8871    9.9027 H   0  0  0  0  0  0  0  0  0  0  0  0
   11.3587   19.1710   11.0302 H   0  0  0  0  0  0  0  0  0  0  0  0
    9.5928   17.5324   11.7869 H   0  0  0  0  0  0  0  0  0  0  0  0
    8.4440   18.2537   10.6616 H   0  0  0  0  0  0  0  0  0  0  0  0
    8.6533   20.4607   11.8668 H   0  0  0  0  0  0  0  0  0  0  0  0
    9.7969   19.7357   12.9937 H   0  0  0  0  0  0  0  0  0  0  0  0
    6.8538   18.8505   12.6430 H   0  0  0  0  0  0  0  0  0  0  0  0
    7.4979   19.8057   13.9979 H   0  0  0  0  0  0  0  0  0  0  0  0
    8.0067   18.1158   13.7780 H   0  0  0  0  0  0  0  0  0  0  0  0
   15.4900   10.9031    2.7248 H   0  0  0  0  0  0  0  0  0  0  0  0
   16.5671    8.9347    2.8732 H   0  0  0  0  0  0  0  0  0  0  0  0
   15.7573    9.1500    1.2988 H   0  0  0  0  0  0  0  0  0  0  0  0
   15.4700    6.6593    1.1221 H   0  0  0  0  0  0  0  0  0  0  0  0
   16.2889    6.4529    2.6765 H   0  0  0  0  0  0  0  0  0  0  0  0
   18.3766    7.5089    1.7126 H   0  0  0  0  0  0  0  0  0  0  0  0
   17.5611    7.7030    0.1607 H   0  0  0  0  0  0  0  0  0  0  0  0
   17.2771    5.2029   -0.0012 H   0  0  0  0  0  0  0  0  0  0  0  0
   18.0929    5.0099    1.5494 H   0  0  0  0  0  0  0  0  0  0  0  0
   20.1729    6.0656    0.5853 H   0  0  0  0  0  0  0  0  0  0  0  0
   19.3573    6.2535   -0.9660 H   0  0  0  0  0  0  0  0  0  0  0  0
   19.0763    3.7505   -1.1213 H   0  0  0  0  0  0  0  0  0  0  0  0
   19.8909    3.5629    0.4305 H   0  0  0  0  0  0  0  0  0  0  0  0
   21.9696    4.6152   -0.5346 H   0  0  0  0  0  0  0  0  0  0  0  0
   21.1559    4.7995   -2.0861 H   0  0  0  0  0  0  0  0  0  0  0  0
   21.7303    2.0947   -0.6995 H   0  0  0  0  0  0  0  0  0  0  0  0
   22.6133    2.7561   -2.0943 H   0  0  0  0  0  0  0  0  0  0  0  0
   20.9082    2.2803   -2.2640 H   0  0  0  0  0  0  0  0  0  0  0  0
    7.9662    6.1223    5.7841 H   0  0  0  0  0  0  0  0  0  0  0  0
    7.6170    5.8944    4.0476 H   0  0  0  0  0  0  0  0  0  0  0  0
    8.1069    8.6042    5.4112 H   0  0  0  0  0  0  0  0  0  0  0  0
    6.5161    7.9249    5.0569 H   0  0  0  0  0  0  0  0  0  0  0  0
    7.0156    7.9378    2.6061 H   0  0  0  0  0  0  0  0  0  0  0  0
    8.6434    8.5376    2.9182 H   0  0  0  0  0  0  0  0  0  0  0  0
    7.6972   10.6498    3.8920 H   0  0  0  0  0  0  0  0  0  0  0  0
    6.0590   10.0535    3.6324 H   0  0  0  0  0  0  0  0  0  0  0  0
    6.4691    9.9722    1.1532 H   0  0  0  0  0  0  0  0  0  0  0  0
    8.1205   10.5356    1.3989 H   0  0  0  0  0  0  0  0  0  0  0  0
    7.2539   12.6846    2.3786 H   0  0  0  0  0  0  0  0  0  0  0  0
    5.5963   12.1221    2.1681 H   0  0  0  0  0  0  0  0  0  0  0  0
    5.9511   11.9991   -0.3216 H   0  0  0  0  0  0  0  0  0  0  0  0
    7.6124   12.5477   -0.1162 H   0  0  0  0  0  0  0  0  0  0  0  0
    5.1027   14.1897    0.6432 H   0  0  0  0  0  0  0  0  0  0  0  0
    6.1261   14.4579   -0.7861 H   0  0  0  0  0  0  0  0  0  0  0  0
    6.7800   14.7427    0.8424 H   0  0  0  0  0  0  0  0  0  0  0  0
    8.6367    4.1152    4.8276 H   0  0  0  0  0  0  0  0  0  0  0  0
   10.5465    0.8658    4.3888 H   0  0  0  0  0  0  0  0  0  0  0  0
    7.8667    2.2081    5.1303 H   0  0  0  0  0  0  0  0  0  0  0  0
    9.7783   -1.1243    4.6012 H   0  0  0  0  0  0  0  0  0  0  0  0
    8.6560   -3.2942    4.9470 H   0  0  0  0  0  0  0  0  0  0  0  0
    5.0815   -1.4834    5.9851 H   0  0  0  0  0  0  0  0  0  0  0  0
    6.0403    0.7870    5.6882 H   0  0  0  0  0  0  0  0  0  0  0  0
  1  2  1  0
  1 93  1  0
  1 94  1  0
  1 95  1  0
  2  3  1  0
  2 96  1  0
  2 97  1  0
  3  4  1  0
  3 98  1  0
  3 99  1  0
  4  5  1  0
  4100  1  0
  4101  1  0
  5  6  1  0
  5102  1  0
  5103  1  0
  6  7  1  0
  6104  1  0
  6105  1  0
  7  8  1  0
  7106  1  0
  7107  1  0
  8  9  1  0
  8108  1  0
  8109  1  0
  9 10  1  0
 10 11  2  0
 10 84  1  0
 11 12  1  0
 11110  1  0
 12 13  1  0
 12 73  2  0
 13 14  2  0
 13111  1  0
 14 15  1  0
 14112  1  0
 15 16  2  0
 15 63  1  0
 16 17  1  0
 16113  1  0
 17 18  1  0
 17 27  2  0
 18 19  1  0
 19 20  1  0
 19114  1  0
 19115  1  0
 20 21  1  0
 20116  1  0
 20117  1  0
 21 22  1  0
 21118  1  0
 21119  1  0
 22 23  1  0
 22120  1  0
 22121  1  0
 23 24  1  0
 23122  1  0
 23123  1  0
 24 25  1  0
 24124  1  0
 24125  1  0
 25 26  1  0
 25126  1  0
 25127  1  0
 26128  1  0
 26129  1  0
 26130  1  0
 27 28  1  0
 27 62  1  0
 28 29  2  0
 28131  1  0
 29 30  1  0
 29132  1  0
 30 31  2  0
 30 52  1  0
 31 32  1  0
 31133  1  0
 32 33  1  0
 32 42  2  0
 33 34  1  0
 34 35  1  0
 34134  1  0
 34135  1  0
 35 36  1  0
 35136  1  0
 35137  1  0
 36 37  1  0
 36138  1  0
 36139  1  0
 37 38  1  0
 37140  1  0
 37141  1  0
 38 39  1  0
 38142  1  0
 38143  1  0
 39 40  1  0
 39144  1  0
 39145  1  0
 40 41  1  0
 40146  1  0
 40147  1  0
 41148  1  0
 41149  1  0
 41150  1  0
 42 43  1  0
 42 51  1  0
 43 44  2  0
 43151  1  0
 44 45  1  0
 44152  1  0
 45 46  2  0
 45 50  1  0
 46 47  1  0
 46153  1  0
 47 48  2  0
 47154  1  0
 48 49  1  0
 49 50  2  0
 49155  1  0
 50156  1  0
 51 52  2  0
 51157  1  0
 52 53  1  0
 53 54  1  0
 54 55  1  0
 54158  1  0
 54159  1  0
 55 56  1  0
 55160  1  0
 55161  1  0
 56 57  1  0
 56162  1  0
 56163  1  0
 57 58  1  0
 57164  1  0
 57165  1  0
 58 59  1  0
 58166  1  0
 58167  1  0
 59 60  1  0
 59168  1  0
 59169  1  0
 60 61  1  0
 60170  1  0
 60171  1  0
 61172  1  0
 61173  1  0
 61174  1  0
 62 63  2  0
 62175  1  0
 63 64  1  0
 64 65  1  0
 65 66  1  0
 65176  1  0
 65177  1  0
 66 67  1  0
 66178  1  0
 66179  1  0
 67 68  1  0
 67180  1  0
 67181  1  0
 68 69  1  0
 68182  1  0
 68183  1  0
 69 70  1  0
 69184  1  0
 69185  1  0
 70 71  1  0
 70186  1  0
 70187  1  0
 71 72  1  0
 71188  1  0
 71189  1  0
 72190  1  0
 72191  1  0
 72192  1  0
 73 74  1  0
 73 83  1  0
 74 75  1  0
 75 76  1  0
 75193  1  0
 75194  1  0
 76 77  1  0
 76195  1  0
 76196  1  0
 77 78  1  0
 77197  1  0
 77198  1  0
 78 79  1  0
 78199  1  0
 78200  1  0
 79 80  1  0
 79201  1  0
 79202  1  0
 80 81  1  0
 80203  1  0
 80204  1  0
 81 82  1  0
 81205  1  0
 81206  1  0
 82207  1  0
 82208  1  0
 82209  1  0
 83 84  2  0
 83210  1  0
 84 85  1  0
 85 86  2  0
 85211  1  0
 86 87  1  0
 86212  1  0
 87 88  2  0
 87 92  1  0
 88 89  1  0
 88213  1  0
 89 90  2  0
 89214  1  0
 90 91  1  0
 91 92  2  0
 91215  1  0
 92216  1  0
M  END

