
     RDKit          3D

 78 83  0  0  0  0  0  0  0  0999 V2000
    2.6254   -0.4271   -0.3063 C   0  0  0  0  0  0  0  0  0  0  0  0
    2.2200   -1.6687   -0.8741 O   0  0  0  0  0  0  0  0  0  0  0  0
    2.2375   -2.7395   -0.0385 C   0  0  0  0  0  0  0  0  0  0  0  0
    2.6476   -2.6566    1.1050 O   0  0  0  0  0  0  0  0  0  0  0  0
    1.7255   -3.9648   -0.6731 C   0  0  0  0  0  0  0  0  0  0  0  0
    0.7619   -3.9785   -1.7194 C   0  0  0  0  0  0  0  0  0  0  0  0
    0.2283   -2.7451   -2.4371 C   0  0  0  0  0  0  0  0  0  0  0  0
   -0.7034   -1.8706   -1.6266 C   0  0  0  0  0  0  0  0  0  0  0  0
   -1.6756   -2.3942   -0.7577 C   0  0  0  0  0  0  0  0  0  0  0  0
   -2.5518   -1.5699   -0.0563 C   0  0  0  0  0  0  0  0  0  0  0  0
   -2.4785   -0.1740   -0.1873 C   0  0  0  0  0  0  0  0  0  0  0  0
   -3.4610    0.6533    0.6058 C   0  0  0  0  0  0  0  0  0  0  0  0
   -4.4740    0.1542    1.0764 O   0  0  0  0  0  0  0  0  0  0  0  0
   -3.1481    1.9705    0.7810 N   0  0  0  0  0  0  0  0  0  0  0  0
   -4.0018    2.8708    1.5522 C   0  0  2  0  0  0  0  0  0  0  0  0
   -4.3920    2.2973    2.4084 H   0  0  0  0  0  0  0  0  0  0  0  0
   -5.2173    3.3804    0.7085 C   0  0  0  0  0  0  0  0  0  0  0  0
   -4.9448    4.5117   -0.3228 C   0  0  0  0  0  0  0  0  0  0  0  0
   -4.5708    5.9979   -0.0863 C   0  0  0  0  0  0  0  0  0  0  0  0
   -4.9270    6.6199   -1.2624 O   0  0  0  0  0  0  0  0  0  0  0  0
   -0.6619    3.8379    1.9316 C   0  0  0  0  0  0  0  0  0  0  0  0
   -1.9004    4.4476    2.5854 C   0  0  1  0  0  0  0  0  0  0  0  0
   -1.9538    6.0219    2.4717 C   0  0  0  0  0  0  0  0  0  0  0  0
   -3.4760    6.4122    2.2817 C   0  0  2  0  0  0  0  0  0  0  0  0
   -3.7196    7.2788    2.9175 H   0  0  0  0  0  0  0  0  0  0  0  0
   -4.1589    5.1284    2.7167 C   0  0  0  0  0  0  0  0  0  0  0  0
   -3.2677    4.1436    1.9381 C   0  0  2  0  0  0  0  0  0  0  0  0
   -3.0957    4.5876    0.9500 H   0  0  0  0  0  0  0  0  0  0  0  0
   -3.9358    6.7366    0.8648 C   0  0  0  0  0  0  0  0  0  0  0  0
   -1.5247    0.3718   -1.0583 C   0  0  0  0  0  0  0  0  0  0  0  0
   -0.6674   -0.4754   -1.7522 C   0  0  0  0  0  0  0  0  0  0  0  0
    0.2333    0.0838   -2.5840 F   0  0  0  0  0  0  0  0  0  0  0  0
    0.1847   -5.1826   -2.1209 C   0  0  0  0  0  0  0  0  0  0  0  0
   -0.7112   -5.2637   -3.0579 O   0  0  0  0  0  0  0  0  0  0  0  0
    0.5448   -6.4279   -1.4628 C   0  0  0  0  0  0  0  0  0  0  0  0
   -0.0206   -7.6715   -1.7913 C   0  0  0  0  0  0  0  0  0  0  0  0
    0.4196   -8.8166   -1.1241 C   0  0  0  0  0  0  0  0  0  0  0  0
    1.4180   -8.6665   -0.1588 C   0  0  0  0  0  0  0  0  0  0  0  0
    1.9588   -7.4916    0.1650 N   0  0  0  0  0  0  0  0  0  0  0  0
    1.5423   -6.3825   -0.4495 C   0  0  0  0  0  0  0  0  0  0  0  0
    2.1294   -5.1808   -0.0954 N   0  0  0  0  0  0  0  0  0  0  0  0
    3.3214   -5.2557    0.7296 C   0  0  0  0  0  0  0  0  0  0  0  0
    4.5697   -5.1275    0.1183 C   0  0  0  0  0  0  0  0  0  0  0  0
    5.7311   -5.2176    0.8914 C   0  0  0  0  0  0  0  0  0  0  0  0
    5.6402   -5.4451    2.2666 C   0  0  0  0  0  0  0  0  0  0  0  0
    4.3841   -5.5804    2.8691 C   0  0  0  0  0  0  0  0  0  0  0  0
    3.2232   -5.4843    2.1038 C   0  0  0  0  0  0  0  0  0  0  0  0
    3.6789   -0.4652    0.0106 H   0  0  0  0  0  0  0  0  0  0  0  0
    2.0104   -0.1755    0.5714 H   0  0  0  0  0  0  0  0  0  0  0  0
    2.4866    0.3222   -1.0950 H   0  0  0  0  0  0  0  0  0  0  0  0
   -0.3385   -3.1190   -3.3119 H   0  0  0  0  0  0  0  0  0  0  0  0
    1.0455   -2.1320   -2.8298 H   0  0  0  0  0  0  0  0  0  0  0  0
   -1.7407   -3.4779   -0.6352 H   0  0  0  0  0  0  0  0  0  0  0  0
   -3.3127   -1.9849    0.6062 H   0  0  0  0  0  0  0  0  0  0  0  0
   -2.2531    2.3118    0.4586 H   0  0  0  0  0  0  0  0  0  0  0  0
   -6.0338    3.6693    1.3861 H   0  0  0  0  0  0  0  0  0  0  0  0
   -5.6068    2.5254    0.1357 H   0  0  0  0  0  0  0  0  0  0  0  0
   -5.8497    4.5795   -0.9467 H   0  0  0  0  0  0  0  0  0  0  0  0
   -4.1698    4.1509   -1.0268 H   0  0  0  0  0  0  0  0  0  0  0  0
   -4.6575    7.5474   -1.2186 H   0  0  0  0  0  0  0  0  0  0  0  0
   -0.6244    2.7446    2.0632 H   0  0  0  0  0  0  0  0  0  0  0  0
    0.2605    4.2494    2.3731 H   0  0  0  0  0  0  0  0  0  0  0  0
   -1.9071    4.1584    3.6515 H   0  0  0  0  0  0  0  0  0  0  0  0
   -1.3455    6.3642    1.6188 H   0  0  0  0  0  0  0  0  0  0  0  0
   -1.5412    6.5003    3.3736 H   0  0  0  0  0  0  0  0  0  0  0  0
   -5.2249    5.1181    2.4728 H   0  0  0  0  0  0  0  0  0  0  0  0
   -4.0615    4.9400    3.7996 H   0  0  0  0  0  0  0  0  0  0  0  0
   -0.6267    4.0605    0.8499 H   0  0  0  0  0  0  0  0  0  0  0  0
   -3.7698    7.7849    0.5748 H   0  0  0  0  0  0  0  0  0  0  0  0
   -1.4381    1.4442   -1.2433 H   0  0  0  0  0  0  0  0  0  0  0  0
   -0.7863   -7.7272   -2.5654 H   0  0  0  0  0  0  0  0  0  0  0  0
    0.0065   -9.8007   -1.3520 H   0  0  0  0  0  0  0  0  0  0  0  0
    1.8047   -9.5378    0.3825 H   0  0  0  0  0  0  0  0  0  0  0  0
    4.6297   -4.9568   -0.9591 H   0  0  0  0  0  0  0  0  0  0  0  0
    6.7086   -5.1147    0.4137 H   0  0  0  0  0  0  0  0  0  0  0  0
    6.5479   -5.5172    2.8710 H   0  0  0  0  0  0  0  0  0  0  0  0
    4.3087   -5.7550    3.9452 H   0  0  0  0  0  0  0  0  0  0  0  0
    2.2391   -5.5739    2.5651 H   0  0  0  0  0  0  0  0  0  0  0  0
  1  2  1  0
  1 48  1  0
  1 49  1  0
  1 50  1  0
  2  3  1  0
  3  4  2  0
  3  5  1  0
  5  6  2  0
  5 41  1  0
  6  7  1  0
  6 33  1  0
  7  8  1  0
  7 51  1  0
  7 52  1  0
  8  9  2  0
  8 31  1  0
  9 10  1  0
  9 53  1  0
 10 11  2  0
 10 54  1  0
 11 12  1  0
 11 30  1  0
 12 13  2  0
 12 14  1  0
 14 15  1  0
 14 55  1  0
 15 16  1  1
 15 17  1  0
 15 27  1  0
 17 18  1  0
 17 56  1  0
 17 57  1  0
 18 19  1  0
 18 58  1  0
 18 59  1  0
 19 20  1  0
 19 29  2  0
 20 60  1  0
 21 22  1  0
 21 61  1  0
 21 62  1  0
 21 68  1  0
 22 23  1  0
 22 27  1  0
 22 63  1  1
 23 24  1  0
 23 64  1  0
 23 65  1  0
 24 25  1  1
 24 26  1  0
 24 29  1  0
 26 27  1  0
 26 66  1  0
 26 67  1  0
 27 28  1  6
 29 69  1  0
 30 31  2  0
 30 70  1  0
 31 32  1  0
 33 34  2  0
 33 35  1  0
 35 36  1  0
 35 40  2  0
 36 37  2  0
 36 71  1  0
 37 38  1  0
 37 72  1  0
 38 39  2  0
 38 73  1  0
 39 40  1  0
 40 41  1  0
 41 42  1  0
 42 43  2  0
 42 47  1  0
 43 44  1  0
 43 74  1  0
 44 45  2  0
 44 75  1  0
 45 46  1  0
 45 76  1  0
 46 47  2  0
 46 77  1  0
 47 78  1  0
M  END

