
     RDKit          3D

 43 43  0  0  0  0  0  0  0  0999 V2000
    0.3270    6.6300    2.8674 C   0  0  0  0  0  0  0  0  0  0  0  0
    1.8258    6.6591    2.5643 C   0  0  0  0  0  0  0  0  0  0  0  0
    2.5952    5.4728    3.1536 C   0  0  0  0  0  0  0  0  0  0  0  0
    4.0968    5.4951    2.8544 C   0  0  0  0  0  0  0  0  0  0  0  0
    4.8622    4.3068    3.4422 C   0  0  0  0  0  0  0  0  0  0  0  0
    6.3579    4.3347    3.1272 C   0  0  0  0  0  0  0  0  0  0  0  0
    7.0356    3.1904    3.7242 N   0  0  0  0  0  0  0  0  0  0  0  0
    8.7535    3.1284    3.5557 S   0  0  1  0  0  0  0  0  0  0  0  0
    9.0148    1.6940    3.7724 O   0  0  0  0  0  0  0  0  0  0  0  0
    9.1233    3.7687    2.2766 O   0  0  0  0  0  0  0  0  0  0  0  0
    9.3802    4.0813    4.8516 C   0  0  0  0  0  0  0  0  0  0  0  0
    9.3013    3.5932    6.2064 C   0  0  0  0  0  0  0  0  0  0  0  0
    9.7982    4.3596    7.2342 C   0  0  0  0  0  0  0  0  0  0  0  0
   10.4016    5.6350    7.0028 C   0  0  0  0  0  0  0  0  0  0  0  0
   10.9577    6.4329    8.1447 C   0  0  1  0  0  0  0  0  0  0  0  0
   12.4185    6.9235    8.0476 C   0  0  0  0  0  0  0  0  0  0  0  0
   10.1059    7.5612    8.5198 N   0  0  0  0  0  0  0  0  0  0  0  0
   10.5110    6.0897    5.6383 C   0  0  0  0  0  0  0  0  0  0  0  0
   10.0094    5.3404    4.5990 C   0  0  0  0  0  0  0  0  0  0  0  0
   -0.1936    7.4964    2.4286 H   0  0  0  0  0  0  0  0  0  0  0  0
    0.1373    6.6432    3.9541 H   0  0  0  0  0  0  0  0  0  0  0  0
   -0.1458    5.7189    2.4637 H   0  0  0  0  0  0  0  0  0  0  0  0
    2.2613    7.6004    2.9473 H   0  0  0  0  0  0  0  0  0  0  0  0
    1.9806    6.6834    1.4701 H   0  0  0  0  0  0  0  0  0  0  0  0
    2.1608    4.5308    2.7692 H   0  0  0  0  0  0  0  0  0  0  0  0
    2.4411    5.4458    4.2488 H   0  0  0  0  0  0  0  0  0  0  0  0
    4.5312    6.4364    3.2407 H   0  0  0  0  0  0  0  0  0  0  0  0
    4.2499    5.5241    1.7598 H   0  0  0  0  0  0  0  0  0  0  0  0
    4.4287    3.3661    3.0531 H   0  0  0  0  0  0  0  0  0  0  0  0
    4.7302    4.2706    4.5377 H   0  0  0  0  0  0  0  0  0  0  0  0
    6.8064    5.2491    3.5532 H   0  0  0  0  0  0  0  0  0  0  0  0
    6.5177    4.3949    2.0329 H   0  0  0  0  0  0  0  0  0  0  0  0
    6.6977    2.2928    3.3713 H   0  0  0  0  0  0  0  0  0  0  0  0
    8.8647    2.6126    6.3982 H   0  0  0  0  0  0  0  0  0  0  0  0
    9.7375    3.9669    8.2558 H   0  0  0  0  0  0  0  0  0  0  0  0
   10.9043    5.8246    9.0782 H   0  0  0  0  0  0  0  0  0  0  0  0
   12.5609    7.5414    7.1503 H   0  0  0  0  0  0  0  0  0  0  0  0
   13.0582    6.0391    7.9501 H   0  0  0  0  0  0  0  0  0  0  0  0
   12.7447    7.4951    8.9332 H   0  0  0  0  0  0  0  0  0  0  0  0
    9.1729    7.6396    8.1145 H   0  0  0  0  0  0  0  0  0  0  0  0
   10.3791    8.2534    9.2211 H   0  0  0  0  0  0  0  0  0  0  0  0
   11.0066    7.0368    5.4027 H   0  0  0  0  0  0  0  0  0  0  0  0
   10.0976    5.6812    3.5664 H   0  0  0  0  0  0  0  0  0  0  0  0
  1  2  1  0
  1 20  1  0
  1 21  1  0
  1 22  1  0
  2  3  1  0
  2 23  1  0
  2 24  1  0
  3  4  1  0
  3 25  1  0
  3 26  1  0
  4  5  1  0
  4 27  1  0
  4 28  1  0
  5  6  1  0
  5 29  1  0
  5 30  1  0
  6  7  1  0
  6 31  1  0
  6 32  1  0
  8  7  1  6
  7 33  1  0
  8  9  2  0
  8 10  2  0
  8 11  1  0
 11 12  2  0
 11 19  1  0
 12 13  1  0
 12 34  1  0
 13 14  2  0
 13 35  1  0
 14 15  1  0
 14 18  1  0
 15 16  1  0
 15 17  1  0
 15 36  1  1
 16 37  1  0
 16 38  1  0
 16 39  1  0
 17 40  1  0
 17 41  1  0
 18 19  2  0
 18 42  1  0
 19 43  1  0
M  END

