
     RDKit          3D

 51 52  0  0  0  0  0  0  0  0999 V2000
    0.7851    0.2180    1.7507 C   0  0  0  0  0  0  0  0  0  0  0  0
    2.3015    0.2013    1.5905 C   0  0  0  0  0  0  0  0  0  0  0  0
    2.7133    0.9582    0.4185 N   0  0  0  0  0  0  0  0  0  0  0  0
    4.1582    1.1180    0.2331 C   0  0  1  0  0  0  0  0  0  0  0  0
    4.8283   -0.2032   -0.1916 C   0  0  0  0  0  0  0  0  0  0  0  0
    4.3132   -0.7051   -1.5433 C   0  0  0  0  0  0  0  0  0  0  0  0
    4.4824    0.3728   -2.6190 C   0  0  0  0  0  0  0  0  0  0  0  0
    3.8505    1.7031   -2.1870 C   0  0  0  0  0  0  0  0  0  0  0  0
    4.3871    2.2293   -0.8338 C   0  0  2  0  0  0  0  0  0  0  0  0
    5.7887    2.6845   -0.9405 N   0  0  0  0  0  0  0  0  0  0  0  0
    5.9918    3.7186   -1.9589 C   0  0  0  0  0  0  0  0  0  0  0  0
    6.7465    3.2464   -3.2013 C   0  0  0  0  0  0  0  0  0  0  0  0
    6.9647    4.3699   -4.0226 O   0  0  0  0  0  0  0  0  0  0  0  0
    7.6430    4.0831   -5.2134 C   0  0  0  0  0  0  0  0  0  0  0  0
    6.5261    2.9564    0.3117 C   0  0  1  0  0  0  0  0  0  0  0  0
    8.0430    2.9289    0.0726 C   0  0  0  0  0  0  0  0  0  0  0  0
    6.1224    4.2429    1.0389 C   0  0  1  0  0  0  0  0  0  0  0  0
    4.9244    4.3176    1.9546 C   0  0  0  0  0  0  0  0  0  0  0  0
    6.3170    4.3680    2.5296 C   0  0  0  0  0  0  0  0  0  0  0  0
    0.4721   -0.3817    2.6196 H   0  0  0  0  0  0  0  0  0  0  0  0
    0.2947   -0.1861    0.8514 H   0  0  0  0  0  0  0  0  0  0  0  0
    0.4112    1.2450    1.9053 H   0  0  0  0  0  0  0  0  0  0  0  0
    2.6391   -0.8429    1.4793 H   0  0  0  0  0  0  0  0  0  0  0  0
    2.7790    0.5743    2.5275 H   0  0  0  0  0  0  0  0  0  0  0  0
    2.2783    1.8807    0.4494 H   0  0  0  0  0  0  0  0  0  0  0  0
    4.6158    1.4272    1.1933 H   0  0  0  0  0  0  0  0  0  0  0  0
    4.6835   -0.9679    0.5895 H   0  0  0  0  0  0  0  0  0  0  0  0
    5.9152   -0.0261   -0.2527 H   0  0  0  0  0  0  0  0  0  0  0  0
    3.2464   -0.9670   -1.4484 H   0  0  0  0  0  0  0  0  0  0  0  0
    4.8462   -1.6265   -1.8335 H   0  0  0  0  0  0  0  0  0  0  0  0
    4.0327    0.0420   -3.5708 H   0  0  0  0  0  0  0  0  0  0  0  0
    5.5582    0.5198   -2.8120 H   0  0  0  0  0  0  0  0  0  0  0  0
    2.7658    1.5592   -2.0660 H   0  0  0  0  0  0  0  0  0  0  0  0
    3.9708    2.4620   -2.9747 H   0  0  0  0  0  0  0  0  0  0  0  0
    3.7393    3.0877   -0.5382 H   0  0  0  0  0  0  0  0  0  0  0  0
    6.5709    4.5615   -1.5518 H   0  0  0  0  0  0  0  0  0  0  0  0
    5.0341    4.1645   -2.2799 H   0  0  0  0  0  0  0  0  0  0  0  0
    6.1744    2.4704   -3.7472 H   0  0  0  0  0  0  0  0  0  0  0  0
    7.7081    2.7817   -2.9011 H   0  0  0  0  0  0  0  0  0  0  0  0
    7.7600    5.0232   -5.7732 H   0  0  0  0  0  0  0  0  0  0  0  0
    7.0864    3.3632   -5.8487 H   0  0  0  0  0  0  0  0  0  0  0  0
    8.6509    3.6570   -5.0280 H   0  0  0  0  0  0  0  0  0  0  0  0
    6.3178    2.1220    0.9951 H   0  0  0  0  0  0  0  0  0  0  0  0
    8.3806    3.7633   -0.5622 H   0  0  0  0  0  0  0  0  0  0  0  0
    8.3402    1.9876   -0.4140 H   0  0  0  0  0  0  0  0  0  0  0  0
    8.5787    3.0125    1.0307 H   0  0  0  0  0  0  0  0  0  0  0  0
    6.3287    5.1582    0.4725 H   0  0  0  0  0  0  0  0  0  0  0  0
    4.3378    3.4109    2.1254 H   0  0  0  0  0  0  0  0  0  0  0  0
    4.3287    5.2352    1.9505 H   0  0  0  0  0  0  0  0  0  0  0  0
    6.6734    3.4856    3.0716 H   0  0  0  0  0  0  0  0  0  0  0  0
    6.6856    5.3148    2.9345 H   0  0  0  0  0  0  0  0  0  0  0  0
  1  2  1  0
  1 20  1  0
  1 21  1  0
  1 22  1  0
  2  3  1  0
  2 23  1  0
  2 24  1  0
  3  4  1  0
  3 25  1  0
  4  5  1  0
  4  9  1  0
  4 26  1  1
  5  6  1  0
  5 27  1  0
  5 28  1  0
  6  7  1  0
  6 29  1  0
  6 30  1  0
  7  8  1  0
  7 31  1  0
  7 32  1  0
  8  9  1  0
  8 33  1  0
  8 34  1  0
  9 10  1  0
  9 35  1  1
 10 11  1  0
 10 15  1  0
 11 12  1  0
 11 36  1  0
 11 37  1  0
 12 13  1  0
 12 38  1  0
 12 39  1  0
 13 14  1  0
 14 40  1  0
 14 41  1  0
 14 42  1  0
 15 16  1  0
 15 17  1  0
 15 43  1  1
 16 44  1  0
 16 45  1  0
 16 46  1  0
 17 18  1  0
 17 19  1  0
 17 47  1  6
 18 19  1  0
 18 48  1  0
 18 49  1  0
 19 50  1  0
 19 51  1  0
M  END

