
     RDKit          3D

 40 41  0  0  0  0  0  0  0  0999 V2000
    1.4280   -0.6835   -0.5564 C   0  0  0  0  0  0  0  0  0  0  0  0
    2.6842   -0.2031    0.1025 C   0  0  0  0  0  0  0  0  0  0  0  0
    3.0431    1.1671    0.1296 C   0  0  0  0  0  0  0  0  0  0  0  0
    2.1624    2.1727   -0.2443 N   0  0  0  0  0  0  0  0  0  0  0  0
    0.7907    2.2991    0.1034 C   0  0  0  0  0  0  0  0  0  0  0  0
    0.2871    1.6230    0.9753 O   0  0  0  0  0  0  0  0  0  0  0  0
    0.1254    3.2827   -0.5961 N   0  0  0  0  0  0  0  0  0  0  0  0
   -1.2572    3.5725   -0.2229 C   0  0  0  0  0  0  0  0  0  0  0  0
   -1.4572    5.0802   -0.0364 C   0  0  0  0  0  0  0  0  0  0  0  0
   -1.0148    5.8828   -1.2861 C   0  0  2  0  0  0  0  0  0  0  0  0
   -2.0158    5.7244   -2.4369 C   0  0  0  0  0  0  0  0  0  0  0  0
   -1.7854    5.1501   -3.4671 O   0  0  0  0  0  0  0  0  0  0  0  0
   -3.2339    6.2707   -2.2250 O   0  0  0  0  0  0  0  0  0  0  0  0
    0.4063    5.4714   -1.7074 C   0  0  0  0  0  0  0  0  0  0  0  0
    0.5660    3.9500   -1.8223 C   0  0  0  0  0  0  0  0  0  0  0  0
    4.3698    1.6360    0.4633 C   0  0  0  0  0  0  0  0  0  0  0  0
    5.3055    0.6664    0.8812 C   0  0  0  0  0  0  0  0  0  0  0  0
    4.9568   -0.6888    0.9387 C   0  0  0  0  0  0  0  0  0  0  0  0
    3.6459   -1.1539    0.6427 C   0  0  0  0  0  0  0  0  0  0  0  0
    3.3164   -2.5896    0.7804 C   0  0  1  0  0  0  0  0  0  0  0  0
    2.1281   -2.8044    1.4046 F   0  0  0  0  0  0  0  0  0  0  0  0
    3.1941   -3.2543   -0.4182 F   0  0  0  0  0  0  0  0  0  0  0  0
    4.2575   -3.2646    1.4710 F   0  0  0  0  0  0  0  0  0  0  0  0
    1.0038    0.0584   -1.2466 H   0  0  0  0  0  0  0  0  0  0  0  0
    0.6548   -0.9228    0.1961 H   0  0  0  0  0  0  0  0  0  0  0  0
    1.6180   -1.6080   -1.1227 H   0  0  0  0  0  0  0  0  0  0  0  0
    2.6298    3.0267   -0.5452 H   0  0  0  0  0  0  0  0  0  0  0  0
   -1.4799    3.0241    0.6999 H   0  0  0  0  0  0  0  0  0  0  0  0
   -1.9348    3.1891   -1.0093 H   0  0  0  0  0  0  0  0  0  0  0  0
   -0.8610    5.4173    0.8274 H   0  0  0  0  0  0  0  0  0  0  0  0
   -2.5136    5.2751    0.2120 H   0  0  0  0  0  0  0  0  0  0  0  0
   -1.0079    6.9563   -1.0230 H   0  0  0  0  0  0  0  0  0  0  0  0
   -3.2645    6.7353   -1.3764 H   0  0  0  0  0  0  0  0  0  0  0  0
    1.1164    5.8553   -0.9556 H   0  0  0  0  0  0  0  0  0  0  0  0
    0.6618    5.9318   -2.6733 H   0  0  0  0  0  0  0  0  0  0  0  0
    1.6064    3.6891   -2.0543 H   0  0  0  0  0  0  0  0  0  0  0  0
   -0.0420    3.5864   -2.6683 H   0  0  0  0  0  0  0  0  0  0  0  0
    4.5477    2.7028    0.6181 H   0  0  0  0  0  0  0  0  0  0  0  0
    6.3041    0.9732    1.2009 H   0  0  0  0  0  0  0  0  0  0  0  0
    5.7138   -1.4195    1.2306 H   0  0  0  0  0  0  0  0  0  0  0  0
  1  2  1  0
  1 24  1  0
  1 25  1  0
  1 26  1  0
  2  3  2  0
  2 19  1  0
  3  4  1  0
  3 16  1  0
  4  5  1  0
  4 27  1  0
  5  6  2  0
  5  7  1  0
  7  8  1  0
  7 15  1  0
  8  9  1  0
  8 28  1  0
  8 29  1  0
  9 10  1  0
  9 30  1  0
  9 31  1  0
 10 11  1  0
 10 14  1  0
 10 32  1  1
 11 12  2  0
 11 13  1  0
 13 33  1  0
 14 15  1  0
 14 34  1  0
 14 35  1  0
 15 36  1  0
 15 37  1  0
 16 17  2  0
 16 38  1  0
 17 18  1  0
 17 39  1  0
 18 19  2  0
 18 40  1  0
 19 20  1  0
 20 21  1  1
 20 22  1  0
 20 23  1  0
M  END

