
     RDKit          3D

 43 43  0  0  0  0  0  0  0  0999 V2000
    3.5680    0.3440    1.8889 C   0  0  0  0  0  0  0  0  0  0  0  0
    2.7878    0.0973    0.1805 Si  0  0  1  0  0  4  0  0  0  0  0  0
    0.9090   -0.0501    0.3641 C   0  0  0  0  0  0  0  0  0  0  0  0
    3.1964    1.5823   -0.9225 C   0  0  0  0  0  0  0  0  0  0  0  0
    3.4413   -1.5072   -0.6103 C   0  0  0  0  0  0  0  0  0  0  0  0
    4.9593   -1.6021   -0.8297 C   0  0  0  0  0  0  0  0  0  0  0  0
    5.4138   -2.9319   -1.4441 C   0  0  0  0  0  0  0  0  0  0  0  0
    6.9261   -3.0232   -1.6624 C   0  0  0  0  0  0  0  0  0  0  0  0
    7.3598   -4.3513   -2.2636 C   0  0  0  0  0  0  0  0  0  0  0  0
    8.7651   -4.3313   -2.4272 O   0  0  0  0  0  0  0  0  0  0  0  0
    9.3983   -5.4064   -2.9684 C   0  0  0  0  0  0  0  0  0  0  0  0
   10.8061   -5.2979   -3.1063 C   0  0  0  0  0  0  0  0  0  0  0  0
   11.5509   -6.3180   -3.6491 C   0  0  0  0  0  0  0  0  0  0  0  0
   10.9206   -7.5361   -4.1003 C   0  0  0  0  0  0  0  0  0  0  0  0
   11.6598   -8.5583   -4.6958 C   0  0  0  0  0  0  0  0  0  0  0  0
   12.9770   -8.5565   -4.8099 O   0  0  0  0  0  0  0  0  0  0  0  0
   11.1446   -9.6654   -5.2425 O   0  0  0  0  0  0  0  0  0  0  0  0
    9.4931   -7.6395   -3.9247 C   0  0  0  0  0  0  0  0  0  0  0  0
    8.7610   -6.5950   -3.3812 C   0  0  0  0  0  0  0  0  0  0  0  0
    3.1724    1.2500    2.3779 H   0  0  0  0  0  0  0  0  0  0  0  0
    4.6632    0.4543    1.8256 H   0  0  0  0  0  0  0  0  0  0  0  0
    3.3558   -0.5113    2.5522 H   0  0  0  0  0  0  0  0  0  0  0  0
    0.4802    0.8596    0.8169 H   0  0  0  0  0  0  0  0  0  0  0  0
    0.6343   -0.9030    1.0071 H   0  0  0  0  0  0  0  0  0  0  0  0
    0.4195   -0.1978   -0.6131 H   0  0  0  0  0  0  0  0  0  0  0  0
    2.7900    2.5147   -0.4959 H   0  0  0  0  0  0  0  0  0  0  0  0
    2.7659    1.4625   -1.9310 H   0  0  0  0  0  0  0  0  0  0  0  0
    4.2844    1.7181   -1.0372 H   0  0  0  0  0  0  0  0  0  0  0  0
    2.9177   -1.6422   -1.5759 H   0  0  0  0  0  0  0  0  0  0  0  0
    3.1060   -2.3509    0.0228 H   0  0  0  0  0  0  0  0  0  0  0  0
    5.4870   -1.4565    0.1307 H   0  0  0  0  0  0  0  0  0  0  0  0
    5.2970   -0.7756   -1.4813 H   0  0  0  0  0  0  0  0  0  0  0  0
    4.8906   -3.0814   -2.4070 H   0  0  0  0  0  0  0  0  0  0  0  0
    5.0828   -3.7610   -0.7913 H   0  0  0  0  0  0  0  0  0  0  0  0
    7.4586   -2.8825   -0.7058 H   0  0  0  0  0  0  0  0  0  0  0  0
    7.2654   -2.2108   -2.3280 H   0  0  0  0  0  0  0  0  0  0  0  0
    6.8640   -4.5152   -3.2409 H   0  0  0  0  0  0  0  0  0  0  0  0
    7.0632   -5.1897   -1.6027 H   0  0  0  0  0  0  0  0  0  0  0  0
   11.2828   -4.3741   -2.7714 H   0  0  0  0  0  0  0  0  0  0  0  0
   12.6306   -6.1965   -3.7503 H   0  0  0  0  0  0  0  0  0  0  0  0
   10.1898   -9.5428   -5.3413 H   0  0  0  0  0  0  0  0  0  0  0  0
    8.9578   -8.5596   -4.1793 H   0  0  0  0  0  0  0  0  0  0  0  0
    7.6841   -6.7182   -3.2621 H   0  0  0  0  0  0  0  0  0  0  0  0
  2  1  1  1
  1 20  1  0
  1 21  1  0
  1 22  1  0
  2  3  1  0
  2  4  1  0
  2  5  1  0
  3 23  1  0
  3 24  1  0
  3 25  1  0
  4 26  1  0
  4 27  1  0
  4 28  1  0
  5  6  1  0
  5 29  1  0
  5 30  1  0
  6  7  1  0
  6 31  1  0
  6 32  1  0
  7  8  1  0
  7 33  1  0
  7 34  1  0
  8  9  1  0
  8 35  1  0
  8 36  1  0
  9 10  1  0
  9 37  1  0
  9 38  1  0
 10 11  1  0
 11 12  2  0
 11 19  1  0
 12 13  1  0
 12 39  1  0
 13 14  2  0
 13 40  1  0
 14 15  1  0
 14 18  1  0
 15 16  2  0
 15 17  1  0
 17 41  1  0
 18 19  2  0
 18 42  1  0
 19 43  1  0
M  END

