
     RDKit          3D

 69 73  0  0  0  0  0  0  0  0999 V2000
    9.3063   -4.6723   -0.8425 C   0  0  0  0  0  0  0  0  0  0  0  0
    8.7908   -5.3659    0.3195 N   0  0  0  0  0  0  0  0  0  0  0  0
    9.1530   -6.7483    0.5532 C   0  0  0  0  0  0  0  0  0  0  0  0
    8.0256   -4.6858    1.2469 C   0  0  0  0  0  0  0  0  0  0  0  0
    7.6841   -3.3212    1.0722 C   0  0  0  0  0  0  0  0  0  0  0  0
    6.9059   -2.6535    2.0139 C   0  0  0  0  0  0  0  0  0  0  0  0
    6.4358   -3.2772    3.1781 C   0  0  0  0  0  0  0  0  0  0  0  0
    5.6330   -2.4258    4.1663 C   0  0  1  0  0  0  0  0  0  0  0  0
    4.9429   -1.8488    3.5313 H   0  0  0  0  0  0  0  0  0  0  0  0
    4.7968   -3.1687    5.2138 C   0  0  0  0  0  0  0  0  0  0  0  0
    4.5380   -2.7060    6.4885 C   0  0  0  0  0  0  0  0  0  0  0  0
    3.8919   -3.6094    7.5283 C   0  0  0  0  0  0  0  0  0  0  0  0
    2.7859   -4.5048    6.9466 C   0  0  2  0  0  0  0  0  0  0  0  0
    1.9907   -3.8349    6.5765 H   0  0  0  0  0  0  0  0  0  0  0  0
    2.1588   -5.4134    7.9913 C   0  0  0  0  0  0  0  0  0  0  0  0
    0.8003   -5.2842    8.3197 C   0  0  0  0  0  0  0  0  0  0  0  0
    0.1979   -6.1059    9.2763 C   0  0  0  0  0  0  0  0  0  0  0  0
    0.9714   -7.0711    9.9143 C   0  0  0  0  0  0  0  0  0  0  0  0
    0.4054   -7.8647   10.8341 F   0  0  0  0  0  0  0  0  0  0  0  0
    2.3235   -7.2310    9.6159 C   0  0  0  0  0  0  0  0  0  0  0  0
    2.9059   -6.4016    8.6561 C   0  0  0  0  0  0  0  0  0  0  0  0
    3.3506   -5.2517    5.7324 C   0  0  0  0  0  0  0  0  0  0  0  0
    3.9844   -4.3056    4.7190 C   0  0  0  0  0  0  0  0  0  0  0  0
    3.7991   -4.4731    3.5244 O   0  0  0  0  0  0  0  0  0  0  0  0
    4.7874   -1.4416    6.9850 N   0  0  0  0  0  0  0  0  0  0  0  0
    4.9526   -0.2318    6.2785 C   0  0  0  0  0  0  0  0  0  0  0  0
    4.2957    0.9303    6.7119 C   0  0  0  0  0  0  0  0  0  0  0  0
    4.4610    2.1267    6.0140 C   0  0  0  0  0  0  0  0  0  0  0  0
    5.2676    2.1732    4.8718 C   0  0  0  0  0  0  0  0  0  0  0  0
    5.9291    1.0202    4.4445 C   0  0  0  0  0  0  0  0  0  0  0  0
    5.7815   -0.1741    5.1501 C   0  0  0  0  0  0  0  0  0  0  0  0
    6.4820   -1.3720    4.8048 N   0  0  0  0  0  0  0  0  0  0  0  0
    7.7300   -1.4946    5.3715 C   0  0  0  0  0  0  0  0  0  0  0  0
    8.2406   -0.5102    5.9147 O   0  0  0  0  0  0  0  0  0  0  0  0
    8.4614   -2.8267    5.3661 C   0  0  0  0  0  0  0  0  0  0  0  0
    9.6045   -2.9125    6.3958 C   0  0  0  0  0  0  0  0  0  0  0  0
   10.9179   -2.2189    6.0107 C   0  0  0  0  0  0  0  0  0  0  0  0
   11.9537   -2.8262    5.8956 O   0  0  0  0  0  0  0  0  0  0  0  0
   10.8473   -0.8999    5.8248 O   0  0  0  0  0  0  0  0  0  0  0  0
    6.7693   -4.6256    3.3475 C   0  0  0  0  0  0  0  0  0  0  0  0
    7.5413   -5.3187    2.4192 C   0  0  0  0  0  0  0  0  0  0  0  0
    9.8832   -5.3732   -1.4594 H   0  0  0  0  0  0  0  0  0  0  0  0
    9.9753   -3.8336   -0.5709 H   0  0  0  0  0  0  0  0  0  0  0  0
    8.4971   -4.2606   -1.4733 H   0  0  0  0  0  0  0  0  0  0  0  0
    9.7516   -7.1160   -0.2900 H   0  0  0  0  0  0  0  0  0  0  0  0
    8.2648   -7.4007    0.6417 H   0  0  0  0  0  0  0  0  0  0  0  0
    9.7532   -6.8776    1.4740 H   0  0  0  0  0  0  0  0  0  0  0  0
    8.0193   -2.7749    0.1916 H   0  0  0  0  0  0  0  0  0  0  0  0
    6.6627   -1.6018    1.8334 H   0  0  0  0  0  0  0  0  0  0  0  0
    3.4739   -3.0022    8.3476 H   0  0  0  0  0  0  0  0  0  0  0  0
    4.6779   -4.2408    7.9801 H   0  0  0  0  0  0  0  0  0  0  0  0
    0.1948   -4.5262    7.8150 H   0  0  0  0  0  0  0  0  0  0  0  0
   -0.8591   -6.0090    9.5317 H   0  0  0  0  0  0  0  0  0  0  0  0
    2.8994   -8.0003   10.1340 H   0  0  0  0  0  0  0  0  0  0  0  0
    3.9655   -6.5382    8.4239 H   0  0  0  0  0  0  0  0  0  0  0  0
    2.5754   -5.8296    5.2100 H   0  0  0  0  0  0  0  0  0  0  0  0
    4.1299   -5.9654    6.0583 H   0  0  0  0  0  0  0  0  0  0  0  0
    4.4831   -1.3112    7.9424 H   0  0  0  0  0  0  0  0  0  0  0  0
    3.6498    0.8903    7.5935 H   0  0  0  0  0  0  0  0  0  0  0  0
    3.9471    3.0267    6.3597 H   0  0  0  0  0  0  0  0  0  0  0  0
    5.3923    3.1096    4.3238 H   0  0  0  0  0  0  0  0  0  0  0  0
    6.5905    1.0401    3.5763 H   0  0  0  0  0  0  0  0  0  0  0  0
    8.8359   -3.0305    4.3508 H   0  0  0  0  0  0  0  0  0  0  0  0
    7.7377   -3.6261    5.5726 H   0  0  0  0  0  0  0  0  0  0  0  0
    9.8619   -3.9688    6.5470 H   0  0  0  0  0  0  0  0  0  0  0  0
    9.2623   -2.5061    7.3627 H   0  0  0  0  0  0  0  0  0  0  0  0
    9.9101   -0.5986    5.9445 H   0  0  0  0  0  0  0  0  0  0  0  0
    6.4336   -5.1663    4.2346 H   0  0  0  0  0  0  0  0  0  0  0  0
    7.7641   -6.3674    2.6112 H   0  0  0  0  0  0  0  0  0  0  0  0
  1  2  1  0
  1 42  1  0
  1 43  1  0
  1 44  1  0
  2  3  1  0
  2  4  1  0
  3 45  1  0
  3 46  1  0
  3 47  1  0
  4  5  2  0
  4 41  1  0
  5  6  1  0
  5 48  1  0
  6  7  2  0
  6 49  1  0
  7  8  1  0
  7 40  1  0
  8  9  1  6
  8 10  1  0
  8 32  1  0
 10 11  2  0
 10 23  1  0
 11 12  1  0
 11 25  1  0
 12 13  1  0
 12 50  1  0
 12 51  1  0
 13 14  1  6
 13 15  1  0
 13 22  1  0
 15 16  2  0
 15 21  1  0
 16 17  1  0
 16 52  1  0
 17 18  2  0
 17 53  1  0
 18 19  1  0
 18 20  1  0
 20 21  2  0
 20 54  1  0
 21 55  1  0
 22 23  1  0
 22 56  1  0
 22 57  1  0
 23 24  2  0
 25 26  1  0
 25 58  1  0
 26 27  1  0
 26 31  2  0
 27 28  2  0
 27 59  1  0
 28 29  1  0
 28 60  1  0
 29 30  2  0
 29 61  1  0
 30 31  1  0
 30 62  1  0
 31 32  1  0
 32 33  1  0
 33 34  2  0
 33 35  1  0
 35 36  1  0
 35 63  1  0
 35 64  1  0
 36 37  1  0
 36 65  1  0
 36 66  1  0
 37 38  2  0
 37 39  1  0
 39 67  1  0
 40 41  2  0
 40 68  1  0
 41 69  1  0
M  END

