
     RDKit          3D

 41 42  0  0  0  0  0  0  0  0999 V2000
    4.5874    8.0187   -4.9959 C   0  0  0  0  0  0  0  0  0  0  0  0
    4.5546    7.2757   -3.7812 O   0  0  0  0  0  0  0  0  0  0  0  0
    5.1473    6.0581   -3.8205 C   0  0  0  0  0  0  0  0  0  0  0  0
    5.6884    5.5906   -4.8003 O   0  0  0  0  0  0  0  0  0  0  0  0
    5.0407    5.4371   -2.6116 N   0  0  0  0  0  0  0  0  0  0  0  0
    5.6304    4.1339   -2.3774 C   0  0  0  0  0  0  0  0  0  0  0  0
    7.1419    4.1733   -2.1102 C   0  0  0  0  0  0  0  0  0  0  0  0
    7.7284    2.7824   -1.8641 C   0  0  0  0  0  0  0  0  0  0  0  0
    9.2499    2.7827   -1.6731 C   0  0  1  0  0  0  0  0  0  0  0  0
    9.7256    3.4493   -0.4803 N   0  0  0  0  0  0  0  0  0  0  0  0
   10.5197    2.6717    0.3135 C   0  0  0  0  0  0  0  0  0  0  0  0
   11.0887    2.9911    1.3280 O   0  0  0  0  0  0  0  0  0  0  0  0
   10.5501    1.3762   -0.3018 N   0  0  0  0  0  0  0  0  0  0  0  0
   11.2466    0.2536    0.2347 C   0  0  0  0  0  0  0  0  0  0  0  0
   12.4313    0.4280    0.9665 C   0  0  0  0  0  0  0  0  0  0  0  0
   13.0881   -0.6866    1.4951 C   0  0  0  0  0  0  0  0  0  0  0  0
   12.5938   -1.9732    1.2879 C   0  0  0  0  0  0  0  0  0  0  0  0
   11.4288   -2.1534    0.5295 C   0  0  0  0  0  0  0  0  0  0  0  0
   10.9313   -3.5570    0.3126 C   0  0  0  0  0  0  0  0  0  0  0  0
   11.2496   -4.4829    1.0107 O   0  0  0  0  0  0  0  0  0  0  0  0
   10.0968   -3.7424   -0.7353 O   0  0  0  0  0  0  0  0  0  0  0  0
   10.7464   -1.0394    0.0240 C   0  0  0  0  0  0  0  0  0  0  0  0
    9.8018    1.3670   -1.4773 C   0  0  0  0  0  0  0  0  0  0  0  0
    9.5989    0.4267   -2.2089 O   0  0  0  0  0  0  0  0  0  0  0  0
    4.0851    8.9713   -4.7843 H   0  0  0  0  0  0  0  0  0  0  0  0
    4.0600    7.4849   -5.8014 H   0  0  0  0  0  0  0  0  0  0  0  0
    5.6232    8.2008   -5.3214 H   0  0  0  0  0  0  0  0  0  0  0  0
    4.6156    5.9533   -1.8516 H   0  0  0  0  0  0  0  0  0  0  0  0
    5.4384    3.5056   -3.2617 H   0  0  0  0  0  0  0  0  0  0  0  0
    5.1043    3.6689   -1.5276 H   0  0  0  0  0  0  0  0  0  0  0  0
    7.3332    4.8291   -1.2416 H   0  0  0  0  0  0  0  0  0  0  0  0
    7.6311    4.6387   -2.9827 H   0  0  0  0  0  0  0  0  0  0  0  0
    7.5121    2.1197   -2.7185 H   0  0  0  0  0  0  0  0  0  0  0  0
    7.2622    2.3210   -0.9756 H   0  0  0  0  0  0  0  0  0  0  0  0
    9.7262    3.1977   -2.5828 H   0  0  0  0  0  0  0  0  0  0  0  0
    9.6686    4.4448   -0.3074 H   0  0  0  0  0  0  0  0  0  0  0  0
   12.8193    1.4297    1.1395 H   0  0  0  0  0  0  0  0  0  0  0  0
   14.0029   -0.5402    2.0742 H   0  0  0  0  0  0  0  0  0  0  0  0
   13.0952   -2.8524    1.6962 H   0  0  0  0  0  0  0  0  0  0  0  0
   10.0584   -2.9479   -1.2876 H   0  0  0  0  0  0  0  0  0  0  0  0
    9.8174   -1.1569   -0.5310 H   0  0  0  0  0  0  0  0  0  0  0  0
  1  2  1  0
  1 25  1  0
  1 26  1  0
  1 27  1  0
  2  3  1  0
  3  4  2  0
  3  5  1  0
  5  6  1  0
  5 28  1  0
  6  7  1  0
  6 29  1  0
  6 30  1  0
  7  8  1  0
  7 31  1  0
  7 32  1  0
  8  9  1  0
  8 33  1  0
  8 34  1  0
  9 10  1  0
  9 23  1  0
  9 35  1  6
 10 11  1  0
 10 36  1  0
 11 12  2  0
 11 13  1  0
 13 14  1  0
 13 23  1  0
 14 15  2  0
 14 22  1  0
 15 16  1  0
 15 37  1  0
 16 17  2  0
 16 38  1  0
 17 18  1  0
 17 39  1  0
 18 19  1  0
 18 22  2  0
 19 20  2  0
 19 21  1  0
 21 40  1  0
 22 41  1  0
 23 24  2  0
M  END

