
     RDKit          3D

 28 29  0  0  0  0  0  0  0  0999 V2000
    1.2050    0.8543   -0.2866 N   0  0  0  0  0  0  0  0  0  0  0  0
    2.3298    0.5910   -0.2041 C   0  0  0  0  0  0  0  0  0  0  0  0
    3.7608    0.2767   -0.1123 C   0  0  1  0  0  0  0  0  0  0  0  0
    3.9503   -1.2487    0.0272 C   0  0  0  0  0  0  0  0  0  0  0  0
    3.9673   -1.8143    1.0912 O   0  0  0  0  0  0  0  0  0  0  0  0
    4.0664   -1.9092   -1.1818 N   0  0  0  0  0  0  0  0  0  0  0  0
    4.1113   -1.3547   -2.4580 C   0  0  0  0  0  0  0  0  0  0  0  0
    4.0579   -2.3047   -3.8128 S   0  0  0  0  0  0  0  0  0  0  0  0
    4.2129    0.0018   -2.4866 N   0  0  0  0  0  0  0  0  0  0  0  0
    4.5404    0.8285   -1.3388 C   0  0  2  0  0  0  0  0  0  0  0  0
    6.0417    0.9519   -1.0558 C   0  0  0  0  0  0  0  0  0  0  0  0
    6.4756    1.9654   -0.1848 C   0  0  0  0  0  0  0  0  0  0  0  0
    7.8319    2.1049    0.1055 C   0  0  0  0  0  0  0  0  0  0  0  0
    8.4033    3.4812    1.2858 Br  0  0  0  0  0  0  0  0  0  0  0  0
    8.7802    1.2494   -0.4650 C   0  0  0  0  0  0  0  0  0  0  0  0
    8.3447    0.2525   -1.3376 C   0  0  0  0  0  0  0  0  0  0  0  0
    9.3422   -0.6716   -2.0017 C   0  0  1  0  0  0  0  0  0  0  0  0
   10.5724   -0.5387   -1.4844 F   0  0  0  0  0  0  0  0  0  0  0  0
    8.9776   -1.9573   -1.8661 F   0  0  0  0  0  0  0  0  0  0  0  0
    9.4285   -0.4237   -3.3203 F   0  0  0  0  0  0  0  0  0  0  0  0
    6.9836    0.0996   -1.6369 C   0  0  0  0  0  0  0  0  0  0  0  0
    4.1475    0.7142    0.8193 H   0  0  0  0  0  0  0  0  0  0  0  0
    4.0839   -2.9264   -1.1466 H   0  0  0  0  0  0  0  0  0  0  0  0
    4.2698    0.4012   -3.4173 H   0  0  0  0  0  0  0  0  0  0  0  0
    4.1562    1.8391   -1.5450 H   0  0  0  0  0  0  0  0  0  0  0  0
    5.7577    2.6548    0.2659 H   0  0  0  0  0  0  0  0  0  0  0  0
    9.8395    1.3605   -0.2352 H   0  0  0  0  0  0  0  0  0  0  0  0
    6.6749   -0.6845   -2.3300 H   0  0  0  0  0  0  0  0  0  0  0  0
  1  2  3  0
  2  3  1  0
  3  4  1  0
  3 10  1  0
  3 22  1  1
  4  5  2  0
  4  6  1  0
  6  7  1  0
  6 23  1  0
  7  8  2  0
  7  9  1  0
  9 10  1  0
  9 24  1  0
 10 11  1  0
 10 25  1  6
 11 12  2  0
 11 21  1  0
 12 13  1  0
 12 26  1  0
 13 14  1  0
 13 15  2  0
 15 16  1  0
 15 27  1  0
 16 17  1  0
 16 21  2  0
 17 18  1  1
 17 19  1  0
 17 20  1  0
 21 28  1  0
M  END

