
     RDKit          3D

 40 41  0  0  0  0  0  0  0  0999 V2000
    6.8891   -2.0483    2.5469 C   0  0  0  0  0  0  0  0  0  0  0  0
    6.1097   -3.1525    1.8166 C   0  0  1  0  0  0  0  0  0  0  0  0
    6.1406   -4.4490    2.5094 N   0  0  0  0  0  0  0  0  0  0  0  0
    4.6802   -2.8003    1.4853 C   0  0  0  0  0  0  0  0  0  0  0  0
    4.1250   -1.4954    1.6094 C   0  0  0  0  0  0  0  0  0  0  0  0
    2.8056   -1.1976    1.1976 C   0  0  0  0  0  0  0  0  0  0  0  0
    1.9663   -2.2008    0.6318 C   0  0  0  0  0  0  0  0  0  0  0  0
    2.5094   -3.5139    0.4940 C   0  0  0  0  0  0  0  0  0  0  0  0
    1.7992   -4.5737   -0.0411 N   0  0  0  0  0  0  0  0  0  0  0  0
    0.5098   -4.6411   -0.5703 C   0  0  0  0  0  0  0  0  0  0  0  0
   -0.2278   -3.6711   -0.6407 O   0  0  0  0  0  0  0  0  0  0  0  0
    0.0530   -6.0217   -1.0227 C   0  0  1  0  0  0  0  0  0  0  0  0
    1.0931   -7.1188   -1.2998 C   0  0  0  0  0  0  0  0  0  0  0  0
    0.2317   -8.3834   -1.4572 C   0  0  0  0  0  0  0  0  0  0  0  0
   -0.9572   -8.1891   -0.4792 C   0  0  0  0  0  0  0  0  0  0  0  0
   -0.9175   -6.7054   -0.0112 C   0  0  2  0  0  0  0  0  0  0  0  0
   -2.2878   -6.0439    0.1087 C   0  0  0  0  0  0  0  0  0  0  0  0
    3.8435   -3.8177    0.9133 C   0  0  0  0  0  0  0  0  0  0  0  0
    7.9169   -2.3891    2.7503 H   0  0  0  0  0  0  0  0  0  0  0  0
    6.4160   -1.8003    3.5119 H   0  0  0  0  0  0  0  0  0  0  0  0
    6.9605   -1.1236    1.9521 H   0  0  0  0  0  0  0  0  0  0  0  0
    6.6387   -3.3364    0.8517 H   0  0  0  0  0  0  0  0  0  0  0  0
    5.7250   -4.3574    3.4386 H   0  0  0  0  0  0  0  0  0  0  0  0
    7.1038   -4.7638    2.6371 H   0  0  0  0  0  0  0  0  0  0  0  0
    4.7277   -0.6912    2.0347 H   0  0  0  0  0  0  0  0  0  0  0  0
    2.4215   -0.1832    1.3190 H   0  0  0  0  0  0  0  0  0  0  0  0
    0.9511   -1.9943    0.3084 H   0  0  0  0  0  0  0  0  0  0  0  0
    2.3187   -5.4459   -0.0640 H   0  0  0  0  0  0  0  0  0  0  0  0
   -0.5144   -5.8328   -1.9513 H   0  0  0  0  0  0  0  0  0  0  0  0
    1.7593   -7.2488   -0.4261 H   0  0  0  0  0  0  0  0  0  0  0  0
    1.7293   -6.9119   -2.1748 H   0  0  0  0  0  0  0  0  0  0  0  0
    0.8018   -9.3053   -1.2668 H   0  0  0  0  0  0  0  0  0  0  0  0
   -0.1347   -8.4464   -2.4944 H   0  0  0  0  0  0  0  0  0  0  0  0
   -0.8939   -8.8702    0.3837 H   0  0  0  0  0  0  0  0  0  0  0  0
   -1.9143   -8.4083   -0.9789 H   0  0  0  0  0  0  0  0  0  0  0  0
   -0.4229   -6.6661    0.9771 H   0  0  0  0  0  0  0  0  0  0  0  0
   -2.8236   -6.0803   -0.8550 H   0  0  0  0  0  0  0  0  0  0  0  0
   -2.2002   -4.9869    0.3992 H   0  0  0  0  0  0  0  0  0  0  0  0
   -2.9091   -6.5607    0.8583 H   0  0  0  0  0  0  0  0  0  0  0  0
    4.2320   -4.8344    0.8317 H   0  0  0  0  0  0  0  0  0  0  0  0
  1  2  1  0
  1 19  1  0
  1 20  1  0
  1 21  1  0
  2  3  1  0
  2  4  1  0
  2 22  1  6
  3 23  1  0
  3 24  1  0
  4  5  2  0
  4 18  1  0
  5  6  1  0
  5 25  1  0
  6  7  2  0
  6 26  1  0
  7  8  1  0
  7 27  1  0
  8  9  1  0
  8 18  2  0
  9 10  1  0
  9 28  1  0
 10 11  2  0
 10 12  1  0
 12 13  1  0
 12 16  1  0
 12 29  1  6
 13 14  1  0
 13 30  1  0
 13 31  1  0
 14 15  1  0
 14 32  1  0
 14 33  1  0
 15 16  1  0
 15 34  1  0
 15 35  1  0
 16 17  1  0
 16 36  1  1
 17 37  1  0
 17 38  1  0
 17 39  1  0
 18 40  1  0
M  END

