
     RDKit          3D

 44 44  0  0  0  0  0  0  0  0999 V2000
    1.1318    0.9736   -0.4690 C   0  0  0  0  0  0  0  0  0  0  0  0
    2.6509    0.7973   -0.4601 C   0  0  0  0  0  0  0  0  0  0  0  0
    3.1379   -0.3637   -1.3330 C   0  0  0  0  0  0  0  0  0  0  0  0
    4.6584   -0.5464   -1.3311 C   0  0  0  0  0  0  0  0  0  0  0  0
    5.1419   -1.7087   -2.2032 C   0  0  0  0  0  0  0  0  0  0  0  0
    6.6645   -1.8903   -2.2089 C   0  0  0  0  0  0  0  0  0  0  0  0
    7.1170   -3.0654   -3.0794 C   0  0  0  0  0  0  0  0  0  0  0  0
    8.6454   -3.2296   -3.3075 C   0  0  1  0  0  0  0  0  0  0  0  0
    9.2960   -3.5733   -2.0441 N   0  0  0  0  0  0  0  0  0  0  0  0
    9.9647   -2.6850   -1.1544 C   0  0  0  0  0  0  0  0  0  0  0  0
   10.2162   -3.2837    0.2248 C   0  0  0  0  0  0  0  0  0  0  0  0
    8.9826   -4.3845   -4.2300 C   0  0  0  0  0  0  0  0  0  0  0  0
    9.1830   -4.4400   -5.5987 C   0  0  0  0  0  0  0  0  0  0  0  0
    9.5119   -5.7939   -5.8787 C   0  0  0  0  0  0  0  0  0  0  0  0
    9.3387   -6.5038   -4.6456 N   0  0  0  0  0  0  0  0  0  0  0  0
   10.1955   -7.6141   -4.3176 C   0  0  0  0  0  0  0  0  0  0  0  0
    9.1359   -5.5837   -3.6039 N   0  0  0  0  0  0  0  0  0  0  0  0
    0.8178    1.8160    0.1677 H   0  0  0  0  0  0  0  0  0  0  0  0
    0.6209    0.0687   -0.0991 H   0  0  0  0  0  0  0  0  0  0  0  0
    0.7568    1.1689   -1.4877 H   0  0  0  0  0  0  0  0  0  0  0  0
    2.9981    0.6412    0.5778 H   0  0  0  0  0  0  0  0  0  0  0  0
    3.1332    1.7325   -0.7988 H   0  0  0  0  0  0  0  0  0  0  0  0
    2.7907   -0.2091   -2.3716 H   0  0  0  0  0  0  0  0  0  0  0  0
    2.6574   -1.3007   -0.9946 H   0  0  0  0  0  0  0  0  0  0  0  0
    5.0052   -0.6999   -0.2918 H   0  0  0  0  0  0  0  0  0  0  0  0
    5.1388    0.3901   -1.6714 H   0  0  0  0  0  0  0  0  0  0  0  0
    4.7933   -1.5584   -3.2412 H   0  0  0  0  0  0  0  0  0  0  0  0
    4.6671   -2.6466   -1.8620 H   0  0  0  0  0  0  0  0  0  0  0  0
    7.0040   -2.0234   -1.1650 H   0  0  0  0  0  0  0  0  0  0  0  0
    7.1384   -0.9568   -2.5677 H   0  0  0  0  0  0  0  0  0  0  0  0
    6.7061   -2.9649   -4.0949 H   0  0  0  0  0  0  0  0  0  0  0  0
    6.7279   -4.0216   -2.6936 H   0  0  0  0  0  0  0  0  0  0  0  0
    9.0568   -2.2668   -3.6512 H   0  0  0  0  0  0  0  0  0  0  0  0
    9.4512   -4.6087   -2.0375 H   0  0  0  0  0  0  0  0  0  0  0  0
    9.4072   -1.7351   -1.1113 H   0  0  0  0  0  0  0  0  0  0  0  0
   10.9308   -2.4328   -1.6468 H   0  0  0  0  0  0  0  0  0  0  0  0
    9.2693   -3.4996    0.7413 H   0  0  0  0  0  0  0  0  0  0  0  0
   10.7862   -2.5734    0.8401 H   0  0  0  0  0  0  0  0  0  0  0  0
   10.7957   -4.2165    0.1544 H   0  0  0  0  0  0  0  0  0  0  0  0
    9.1259   -3.6226   -6.3162 H   0  0  0  0  0  0  0  0  0  0  0  0
    9.3525   -6.3348   -6.8166 H   0  0  0  0  0  0  0  0  0  0  0  0
   10.1727   -8.3496   -5.1373 H   0  0  0  0  0  0  0  0  0  0  0  0
    9.8317   -8.1035   -3.4006 H   0  0  0  0  0  0  0  0  0  0  0  0
   11.2578   -7.3133   -4.1603 H   0  0  0  0  0  0  0  0  0  0  0  0
  1  2  1  0
  1 18  1  0
  1 19  1  0
  1 20  1  0
  2  3  1  0
  2 21  1  0
  2 22  1  0
  3  4  1  0
  3 23  1  0
  3 24  1  0
  4  5  1  0
  4 25  1  0
  4 26  1  0
  5  6  1  0
  5 27  1  0
  5 28  1  0
  6  7  1  0
  6 29  1  0
  6 30  1  0
  7  8  1  0
  7 31  1  0
  7 32  1  0
  8  9  1  0
  8 12  1  0
  8 33  1  6
  9 10  1  0
  9 34  1  0
 10 11  1  0
 10 35  1  0
 10 36  1  0
 11 37  1  0
 11 38  1  0
 11 39  1  0
 12 13  1  0
 12 17  2  0
 13 14  2  0
 13 40  1  0
 14 15  1  0
 14 41  1  0
 15 16  1  0
 15 17  1  0
 16 42  1  0
 16 43  1  0
 16 44  1  0
M  END

