
     RDKit          3D

 80 85  0  0  0  0  0  0  0  0999 V2000
    0.2378    0.3779   -0.6291 C   0  0  0  0  0  0  0  0  0  0  0  0
    1.7196    0.2092   -0.2485 C   0  0  1  0  0  0  0  0  0  0  0  0
    1.9226   -1.0807    0.5632 C   0  0  0  0  0  0  0  0  0  0  0  0
    2.8832    0.3761   -1.7742 Si  0  0  1  0  0  4  0  0  0  0  0  0
    2.3968   -0.8992   -3.0234 C   0  0  0  0  0  0  0  0  0  0  0  0
    2.0612   -1.7389   -3.8576 C   0  0  0  0  0  0  0  0  0  0  0  0
    1.6817   -2.6975   -4.8253 C   0  0  0  0  0  0  0  0  0  0  0  0
    0.8001   -2.3164   -5.8961 C   0  0  0  0  0  0  0  0  0  0  0  0
    0.2838   -1.0172   -5.9958 C   0  0  0  0  0  0  0  0  0  0  0  0
   -0.5818   -0.6146   -7.0400 C   0  0  0  0  0  0  0  0  0  0  0  0
   -1.1025    0.7023   -7.1355 C   0  0  0  0  0  0  0  0  0  0  0  0
   -1.9479    1.0594   -8.1757 C   0  0  0  0  0  0  0  0  0  0  0  0
   -2.3047    0.1112   -9.1608 C   0  0  0  0  0  0  0  0  0  0  0  0
   -1.8125   -1.1844   -9.0945 C   0  0  0  0  0  0  0  0  0  0  0  0
   -0.9467   -1.5810   -8.0433 C   0  0  0  0  0  0  0  0  0  0  0  0
   -0.4258   -2.8935   -7.9389 C   0  0  0  0  0  0  0  0  0  0  0  0
    0.4279   -3.2916   -6.9038 C   0  0  0  0  0  0  0  0  0  0  0  0
    0.9406   -4.6370   -6.8192 C   0  0  0  0  0  0  0  0  0  0  0  0
    0.5789   -5.5846   -7.7938 C   0  0  0  0  0  0  0  0  0  0  0  0
    0.2615   -6.4124   -8.6431 C   0  0  0  0  0  0  0  0  0  0  0  0
   -0.1052   -7.3702   -9.6232 C   0  0  0  0  0  0  0  0  0  0  0  0
    0.3651   -8.7040   -9.5504 C   0  0  0  0  0  0  0  0  0  0  0  0
    0.0062   -9.6455  -10.5104 C   0  0  0  0  0  0  0  0  0  0  0  0
   -0.8328   -9.2706  -11.5666 C   0  0  0  0  0  0  0  0  0  0  0  0
   -1.3254  -10.5569  -12.8808 Br  0  0  0  0  0  0  0  0  0  0  0  0
   -1.3134   -7.9594  -11.6653 C   0  0  0  0  0  0  0  0  0  0  0  0
   -0.9525   -7.0210  -10.7029 C   0  0  0  0  0  0  0  0  0  0  0  0
    1.8170   -5.0192   -5.7395 C   0  0  0  0  0  0  0  0  0  0  0  0
    2.3285   -6.3174   -5.6313 C   0  0  0  0  0  0  0  0  0  0  0  0
    3.1869   -6.7198   -4.5796 C   0  0  0  0  0  0  0  0  0  0  0  0
    3.7018   -8.0374   -4.4759 C   0  0  0  0  0  0  0  0  0  0  0  0
    4.5389   -8.3941   -3.4283 C   0  0  0  0  0  0  0  0  0  0  0  0
    4.8923   -7.4436   -2.4442 C   0  0  0  0  0  0  0  0  0  0  0  0
    4.4057   -6.1467   -2.5183 C   0  0  0  0  0  0  0  0  0  0  0  0
    3.5482   -5.7506   -3.5776 C   0  0  0  0  0  0  0  0  0  0  0  0
    3.0332   -4.4376   -3.6894 C   0  0  0  0  0  0  0  0  0  0  0  0
    2.1863   -4.0411   -4.7336 C   0  0  0  0  0  0  0  0  0  0  0  0
    2.5493    2.0954   -2.5653 C   0  0  1  0  0  0  0  0  0  0  0  0
    2.9093    3.2677   -1.6343 C   0  0  0  0  0  0  0  0  0  0  0  0
    3.1301    2.2968   -3.9759 C   0  0  0  0  0  0  0  0  0  0  0  0
    4.7135    0.0718   -1.2553 C   0  0  1  0  0  0  0  0  0  0  0  0
    5.0617   -1.4246   -1.1439 C   0  0  0  0  0  0  0  0  0  0  0  0
    5.7522    0.7774   -2.1446 C   0  0  0  0  0  0  0  0  0  0  0  0
   -0.4056    0.3214    0.2664 H   0  0  0  0  0  0  0  0  0  0  0  0
   -0.0899   -0.4169   -1.3197 H   0  0  0  0  0  0  0  0  0  0  0  0
    0.0327    1.3442   -1.1159 H   0  0  0  0  0  0  0  0  0  0  0  0
    2.0000    1.0591    0.4044 H   0  0  0  0  0  0  0  0  0  0  0  0
    1.7354   -1.9786   -0.0495 H   0  0  0  0  0  0  0  0  0  0  0  0
    1.2229   -1.1186    1.4167 H   0  0  0  0  0  0  0  0  0  0  0  0
    2.9398   -1.1609    0.9758 H   0  0  0  0  0  0  0  0  0  0  0  0
    0.5603   -0.2856   -5.2342 H   0  0  0  0  0  0  0  0  0  0  0  0
   -0.8254    1.4356   -6.3733 H   0  0  0  0  0  0  0  0  0  0  0  0
   -2.3403    2.0775   -8.2353 H   0  0  0  0  0  0  0  0  0  0  0  0
   -2.9710    0.4012   -9.9769 H   0  0  0  0  0  0  0  0  0  0  0  0
   -2.0888   -1.9184   -9.8563 H   0  0  0  0  0  0  0  0  0  0  0  0
   -0.7038   -3.6264   -8.6986 H   0  0  0  0  0  0  0  0  0  0  0  0
    1.0193   -8.9955   -8.7265 H   0  0  0  0  0  0  0  0  0  0  0  0
    0.3753  -10.6701  -10.4418 H   0  0  0  0  0  0  0  0  0  0  0  0
   -1.9669   -7.6763  -12.4923 H   0  0  0  0  0  0  0  0  0  0  0  0
   -1.3267   -5.9982  -10.7791 H   0  0  0  0  0  0  0  0  0  0  0  0
    2.0539   -7.0529   -6.3897 H   0  0  0  0  0  0  0  0  0  0  0  0
    3.4279   -8.7729   -5.2371 H   0  0  0  0  0  0  0  0  0  0  0  0
    4.9271   -9.4134   -3.3624 H   0  0  0  0  0  0  0  0  0  0  0  0
    5.5519   -7.7332   -1.6225 H   0  0  0  0  0  0  0  0  0  0  0  0
    4.6792   -5.4103   -1.7579 H   0  0  0  0  0  0  0  0  0  0  0  0
    3.3064   -3.7020   -2.9306 H   0  0  0  0  0  0  0  0  0  0  0  0
    1.4483    2.0922   -2.6745 H   0  0  0  0  0  0  0  0  0  0  0  0
    3.9950    3.3277   -1.4496 H   0  0  0  0  0  0  0  0  0  0  0  0
    2.4131    3.1950   -0.6531 H   0  0  0  0  0  0  0  0  0  0  0  0
    2.6069    4.2314   -2.0806 H   0  0  0  0  0  0  0  0  0  0  0  0
    4.2280    2.3779   -3.9645 H   0  0  0  0  0  0  0  0  0  0  0  0
    2.7438    3.2290   -4.4250 H   0  0  0  0  0  0  0  0  0  0  0  0
    2.8684    1.4676   -4.6519 H   0  0  0  0  0  0  0  0  0  0  0  0
    4.7848    0.5137   -0.2419 H   0  0  0  0  0  0  0  0  0  0  0  0
    5.0373   -1.9061   -2.1353 H   0  0  0  0  0  0  0  0  0  0  0  0
    4.3728   -1.9807   -0.4912 H   0  0  0  0  0  0  0  0  0  0  0  0
    6.0806   -1.5572   -0.7396 H   0  0  0  0  0  0  0  0  0  0  0  0
    5.7031    0.4172   -3.1857 H   0  0  0  0  0  0  0  0  0  0  0  0
    6.7749    0.5747   -1.7804 H   0  0  0  0  0  0  0  0  0  0  0  0
    5.6234    1.8696   -2.1628 H   0  0  0  0  0  0  0  0  0  0  0  0
  1  2  1  0
  1 44  1  0
  1 45  1  0
  1 46  1  0
  2  3  1  0
  2  4  1  0
  2 47  1  1
  3 48  1  0
  3 49  1  0
  3 50  1  0
  4  5  1  6
  4 38  1  0
  4 41  1  0
  5  6  3  0
  6  7  1  0
  7  8  2  0
  7 37  1  0
  8  9  1  0
  8 17  1  0
  9 10  2  0
  9 51  1  0
 10 11  1  0
 10 15  1  0
 11 12  2  0
 11 52  1  0
 12 13  1  0
 12 53  1  0
 13 14  2  0
 13 54  1  0
 14 15  1  0
 14 55  1  0
 15 16  2  0
 16 17  1  0
 16 56  1  0
 17 18  2  0
 18 19  1  0
 18 28  1  0
 19 20  3  0
 20 21  1  0
 21 22  2  0
 21 27  1  0
 22 23  1  0
 22 57  1  0
 23 24  2  0
 23 58  1  0
 24 25  1  0
 24 26  1  0
 26 27  2  0
 26 59  1  0
 27 60  1  0
 28 29  1  0
 28 37  2  0
 29 30  2  0
 29 61  1  0
 30 31  1  0
 30 35  1  0
 31 32  2  0
 31 62  1  0
 32 33  1  0
 32 63  1  0
 33 34  2  0
 33 64  1  0
 34 35  1  0
 34 65  1  0
 35 36  2  0
 36 37  1  0
 36 66  1  0
 38 39  1  0
 38 40  1  0
 38 67  1  6
 39 68  1  0
 39 69  1  0
 39 70  1  0
 40 71  1  0
 40 72  1  0
 40 73  1  0
 41 42  1  0
 41 43  1  0
 41 74  1  1
 42 75  1  0
 42 76  1  0
 42 77  1  0
 43 78  1  0
 43 79  1  0
 43 80  1  0
M  END

