
     RDKit          3D

 48 51  0  0  0  0  0  0  0  0999 V2000
    0.9823    2.4821    0.3460 C   0  0  0  0  0  0  0  0  0  0  0  0
    0.6596    2.3598   -1.0109 C   0  0  0  0  0  0  0  0  0  0  0  0
    1.1773    1.3068   -1.7642 C   0  0  0  0  0  0  0  0  0  0  0  0
    2.0281    0.3591   -1.1678 C   0  0  0  0  0  0  0  0  0  0  0  0
    2.5800   -0.7602   -1.9636 C   0  0  0  0  0  0  0  0  0  0  0  0
    2.2730   -0.8943   -3.2365 N   0  0  0  0  0  0  0  0  0  0  0  0
    3.0633   -2.2529   -3.8330 S   0  0  0  0  0  0  0  0  0  0  0  0
    3.7903   -2.5701   -2.2510 C   0  0  0  0  0  0  0  0  0  0  0  0
    4.6397   -3.5955   -2.0073 N   0  0  0  0  0  0  0  0  0  0  0  0
    5.1480   -3.9001   -0.6747 C   0  0  0  0  0  0  0  0  0  0  0  0
    6.4790   -4.6186   -0.7322 C   0  0  0  0  0  0  0  0  0  0  0  0
    7.5482   -4.0988   -1.4823 C   0  0  0  0  0  0  0  0  0  0  0  0
    8.7816   -4.7475   -1.5149 C   0  0  0  0  0  0  0  0  0  0  0  0
    8.9894   -5.9365   -0.7967 C   0  0  0  0  0  0  0  0  0  0  0  0
   10.3172   -6.6729   -0.8768 C   0  0  0  0  0  0  0  0  0  0  0  0
   11.4653   -5.7780   -0.9198 N   0  0  0  0  0  0  0  0  0  0  0  0
   11.7653   -5.0840    0.3353 C   0  0  0  0  0  0  0  0  0  0  0  0
   12.5961   -5.9435    1.2931 C   0  0  0  0  0  0  0  0  0  0  0  0
   13.7774   -6.4082    0.6639 O   0  0  0  0  0  0  0  0  0  0  0  0
   13.5006   -7.1585   -0.5038 C   0  0  0  0  0  0  0  0  0  0  0  0
   12.6883   -6.3270   -1.5022 C   0  0  0  0  0  0  0  0  0  0  0  0
    7.9267   -6.4500   -0.0435 C   0  0  0  0  0  0  0  0  0  0  0  0
    6.6858   -5.8048   -0.0175 C   0  0  0  0  0  0  0  0  0  0  0  0
    3.4184   -1.6758   -1.3716 N   0  0  0  0  0  0  0  0  0  0  0  0
    2.3483    0.4868    0.1940 C   0  0  0  0  0  0  0  0  0  0  0  0
    1.8274    1.5430    0.9448 C   0  0  0  0  0  0  0  0  0  0  0  0
    0.5752    3.3086    0.9345 H   0  0  0  0  0  0  0  0  0  0  0  0
   -0.0006    3.0915   -1.4840 H   0  0  0  0  0  0  0  0  0  0  0  0
    0.9329    1.2008   -2.8226 H   0  0  0  0  0  0  0  0  0  0  0  0
    4.7628   -4.2995   -2.7249 H   0  0  0  0  0  0  0  0  0  0  0  0
    4.4203   -4.5037   -0.1014 H   0  0  0  0  0  0  0  0  0  0  0  0
    5.2401   -2.9396   -0.1438 H   0  0  0  0  0  0  0  0  0  0  0  0
    7.4075   -3.1732   -2.0473 H   0  0  0  0  0  0  0  0  0  0  0  0
    9.6129   -4.3323   -2.0891 H   0  0  0  0  0  0  0  0  0  0  0  0
   10.3304   -7.2612   -1.8119 H   0  0  0  0  0  0  0  0  0  0  0  0
   10.3522   -7.4218   -0.0559 H   0  0  0  0  0  0  0  0  0  0  0  0
   10.8264   -4.7635    0.8137 H   0  0  0  0  0  0  0  0  0  0  0  0
   12.3417   -4.1717    0.0978 H   0  0  0  0  0  0  0  0  0  0  0  0
   11.9972   -6.8038    1.6606 H   0  0  0  0  0  0  0  0  0  0  0  0
   12.9105   -5.3581    2.1715 H   0  0  0  0  0  0  0  0  0  0  0  0
   12.9528   -8.0892   -0.2412 H   0  0  0  0  0  0  0  0  0  0  0  0
   14.4713   -7.4519   -0.9344 H   0  0  0  0  0  0  0  0  0  0  0  0
   12.4374   -6.9260   -2.3932 H   0  0  0  0  0  0  0  0  0  0  0  0
   13.3184   -5.4830   -1.8380 H   0  0  0  0  0  0  0  0  0  0  0  0
    8.0659   -7.3713    0.5302 H   0  0  0  0  0  0  0  0  0  0  0  0
    5.8695   -6.2282    0.5751 H   0  0  0  0  0  0  0  0  0  0  0  0
    3.0081   -0.2523    0.6504 H   0  0  0  0  0  0  0  0  0  0  0  0
    2.0830    1.6332    2.0038 H   0  0  0  0  0  0  0  0  0  0  0  0
  1  2  2  0
  1 26  1  0
  1 27  1  0
  2  3  1  0
  2 28  1  0
  3  4  2  0
  3 29  1  0
  4  5  1  0
  4 25  1  0
  5  6  2  0
  5 24  1  0
  6  7  1  0
  7  8  1  0
  8  9  1  0
  8 24  2  0
  9 10  1  0
  9 30  1  0
 10 11  1  0
 10 31  1  0
 10 32  1  0
 11 12  2  0
 11 23  1  0
 12 13  1  0
 12 33  1  0
 13 14  2  0
 13 34  1  0
 14 15  1  0
 14 22  1  0
 15 16  1  0
 15 35  1  0
 15 36  1  0
 16 17  1  0
 16 21  1  0
 17 18  1  0
 17 37  1  0
 17 38  1  0
 18 19  1  0
 18 39  1  0
 18 40  1  0
 19 20  1  0
 20 21  1  0
 20 41  1  0
 20 42  1  0
 21 43  1  0
 21 44  1  0
 22 23  2  0
 22 45  1  0
 23 46  1  0
 25 26  2  0
 25 47  1  0
 26 48  1  0
M  END

