
     RDKit          3D

 53 53  0  0  0  0  0  0  0  0999 V2000
    3.8973    7.0126    1.6638 C   0  0  0  0  0  0  0  0  0  0  0  0
    3.6833    5.5669    2.1492 C   0  0  1  0  0  0  0  0  0  0  0  0
    4.5000    5.3022    3.4277 C   0  0  0  0  0  0  0  0  0  0  0  0
    2.1917    5.3205    2.4182 C   0  0  0  0  0  0  0  0  0  0  0  0
    4.0842    4.6152    1.0867 N   0  0  0  0  0  0  0  0  0  0  0  0
    5.3293    4.4820    0.5549 C   0  0  0  0  0  0  0  0  0  0  0  0
    6.2865    5.1829    0.8557 O   0  0  0  0  0  0  0  0  0  0  0  0
    5.4916    3.3189   -0.4471 C   0  0  0  0  0  0  0  0  0  0  0  0
    6.7064    3.3907   -1.2265 N   0  0  0  0  0  0  0  0  0  0  0  0
    7.4741    3.5959   -0.5877 H   0  0  0  0  0  0  0  0  0  0  0  0
    6.7195    4.3882   -2.2929 C   0  0  0  0  0  0  0  0  0  0  0  0
    5.8025    4.0569   -3.4724 C   0  0  0  0  0  0  0  0  0  0  0  0
    5.9956    2.7021   -3.9664 N   0  0  0  0  0  0  0  0  0  0  0  0
    6.9278    2.3382   -3.7787 H   0  0  0  0  0  0  0  0  0  0  0  0
    5.5585    2.4133   -5.2866 C   0  0  0  0  0  0  0  0  0  0  0  0
    6.2283    3.1684   -6.3758 N   0  0  0  0  0  0  0  0  0  0  0  0
    5.5902    4.1636   -7.0646 N   0  0  0  0  0  0  0  0  0  0  0  0
    6.4797    4.5795   -7.9089 C   0  0  0  0  0  0  0  0  0  0  0  0
    6.3701    5.6174   -8.9023 C   0  0  0  0  0  0  0  0  0  0  0  0
    7.2746    6.0998   -9.8192 C   0  0  0  0  0  0  0  0  0  0  0  0
    6.5910    7.1302  -10.5342 C   0  0  0  0  0  0  0  0  0  0  0  0
    5.3330    7.1921   -9.9981 C   0  0  0  0  0  0  0  0  0  0  0  0
    5.1897    6.2800   -9.0096 O   0  0  0  0  0  0  0  0  0  0  0  0
    7.6648    3.9147   -7.8062 O   0  0  0  0  0  0  0  0  0  0  0  0
    7.5113    2.9867   -6.7965 C   0  0  0  0  0  0  0  0  0  0  0  0
    8.6654    1.9376   -6.2777 S   0  0  0  0  0  0  0  0  0  0  0  0
    5.8566   -0.4354   -1.9044 C   0  0  0  0  0  0  0  0  0  0  0  0
    6.9090   -0.2141   -1.1145 C   0  0  0  0  0  0  0  0  0  0  0  0
    3.5853    7.7267    2.4425 H   0  0  0  0  0  0  0  0  0  0  0  0
    3.3023    7.2095    0.7576 H   0  0  0  0  0  0  0  0  0  0  0  0
    4.9563    7.1850    1.4303 H   0  0  0  0  0  0  0  0  0  0  0  0
    4.1981    5.9986    4.2260 H   0  0  0  0  0  0  0  0  0  0  0  0
    5.5725    5.4361    3.2322 H   0  0  0  0  0  0  0  0  0  0  0  0
    4.3353    4.2740    3.7880 H   0  0  0  0  0  0  0  0  0  0  0  0
    1.8273    6.0022    3.2008 H   0  0  0  0  0  0  0  0  0  0  0  0
    2.0128    4.2881    2.7624 H   0  0  0  0  0  0  0  0  0  0  0  0
    1.5891    5.4958    1.5115 H   0  0  0  0  0  0  0  0  0  0  0  0
    3.3756    3.9649    0.7661 H   0  0  0  0  0  0  0  0  0  0  0  0
    4.6152    3.2577   -1.1128 H   0  0  0  0  0  0  0  0  0  0  0  0
    5.4882    2.3794    0.1358 H   0  0  0  0  0  0  0  0  0  0  0  0
    7.7563    4.4425   -2.6669 H   0  0  0  0  0  0  0  0  0  0  0  0
    6.4616    5.4088   -1.9405 H   0  0  0  0  0  0  0  0  0  0  0  0
    5.9976    4.8249   -4.2486 H   0  0  0  0  0  0  0  0  0  0  0  0
    4.7404    4.1892   -3.1894 H   0  0  0  0  0  0  0  0  0  0  0  0
    4.4913    2.6474   -5.4151 H   0  0  0  0  0  0  0  0  0  0  0  0
    5.7339    1.3493   -5.5021 H   0  0  0  0  0  0  0  0  0  0  0  0
    8.2961    5.7528   -9.9549 H   0  0  0  0  0  0  0  0  0  0  0  0
    6.9832    7.7448  -11.3412 H   0  0  0  0  0  0  0  0  0  0  0  0
    4.4629    7.8091  -10.2065 H   0  0  0  0  0  0  0  0  0  0  0  0
    5.3828   -1.4202   -1.9781 H   0  0  0  0  0  0  0  0  0  0  0  0
    5.4418    0.3724   -2.5165 H   0  0  0  0  0  0  0  0  0  0  0  0
    7.3502   -1.0061   -0.5000 H   0  0  0  0  0  0  0  0  0  0  0  0
    7.3621    0.7815   -1.0636 H   0  0  0  0  0  0  0  0  0  0  0  0
  1  2  1  0
  1 29  1  0
  1 30  1  0
  1 31  1  0
  2  3  1  0
  2  4  1  0
  2  5  1  6
  3 32  1  0
  3 33  1  0
  3 34  1  0
  4 35  1  0
  4 36  1  0
  4 37  1  0
  5  6  1  0
  5 38  1  0
  6  7  2  0
  6  8  1  0
  8  9  1  0
  8 39  1  0
  8 40  1  0
  9 10  1  0
  9 11  1  0
 11 12  1  0
 11 41  1  0
 11 42  1  0
 12 13  1  0
 12 43  1  0
 12 44  1  0
 13 14  1  0
 13 15  1  0
 15 16  1  0
 15 45  1  0
 15 46  1  0
 16 17  1  0
 16 25  1  0
 17 18  2  0
 18 19  1  0
 18 24  1  0
 19 20  2  0
 19 23  1  0
 20 21  1  0
 20 47  1  0
 21 22  2  0
 21 48  1  0
 22 23  1  0
 22 49  1  0
 24 25  1  0
 25 26  2  0
 27 28  2  0
 27 50  1  0
 27 51  1  0
 28 52  1  0
 28 53  1  0
M  END

