
     RDKit          3D

 59 63  0  0  0  0  0  0  0  0999 V2000
   -0.9993   -9.3550   -8.9455 C   0  0  0  0  0  0  0  0  0  0  0  0
   -0.6139   -8.9373   -7.5674 C   0  0  0  0  0  0  0  0  0  0  0  0
   -1.4062   -8.7052   -6.5932 N   0  0  0  0  0  0  0  0  0  0  0  0
   -0.5821   -8.3006   -5.4582 C   0  0  1  0  0  0  0  0  0  0  0  0
   -0.8754   -9.1747   -4.2472 C   0  0  0  0  0  0  0  0  0  0  0  0
   -0.0445   -9.3681   -3.3779 O   0  0  0  0  0  0  0  0  0  0  0  0
   -2.2465   -9.8091   -4.1126 C   0  0  0  0  0  0  0  0  0  0  0  0
   -2.4139  -10.3934   -2.8613 O   0  0  0  0  0  0  0  0  0  0  0  0
    0.8967   -8.4483   -5.9692 C   0  0  2  0  0  0  0  0  0  0  0  0
    1.6211   -7.1137   -5.7282 C   0  0  0  0  0  0  0  0  0  0  0  0
    0.7598   -6.4647   -4.6328 C   0  0  1  0  0  0  0  0  0  0  0  0
    0.9882   -5.0014   -4.2279 C   0  0  2  0  0  0  0  0  0  0  0  0
    0.6925   -4.3452   -5.0628 H   0  0  0  0  0  0  0  0  0  0  0  0
    2.4656   -4.7107   -3.9558 C   0  0  0  0  0  0  0  0  0  0  0  0
    2.6768   -3.2419   -3.5754 C   0  0  1  0  0  0  0  0  0  0  0  0
    3.7396   -3.0782   -3.3198 H   0  0  0  0  0  0  0  0  0  0  0  0
    2.2968   -2.3701   -4.6375 O   0  0  0  0  0  0  0  0  0  0  0  0
    1.8526   -2.9487   -2.3432 C   0  0  0  0  0  0  0  0  0  0  0  0
    2.4854   -2.5343   -1.2270 C   0  0  0  0  0  0  0  0  0  0  0  0
    1.8218   -2.3536    0.0812 C   0  0  0  0  0  0  0  0  0  0  0  0
    2.4284   -1.9515    1.0643 O   0  0  0  0  0  0  0  0  0  0  0  0
    0.3942   -2.7132    0.1052 C   0  0  0  0  0  0  0  0  0  0  0  0
   -0.2553   -3.1191   -0.9990 C   0  0  0  0  0  0  0  0  0  0  0  0
    0.3492   -3.2205   -2.3872 C   0  0  1  0  0  0  0  0  0  0  0  0
   -0.3495   -2.1122   -3.2344 C   0  0  0  0  0  0  0  0  0  0  0  0
    0.0841   -4.6693   -2.9968 C   0  0  1  0  0  0  0  0  0  0  0  0
   -1.3907   -4.9512   -3.3807 C   0  0  2  0  0  0  0  0  0  0  0  0
   -2.2389   -4.7343   -2.2613 O   0  0  0  0  0  0  0  0  0  0  0  0
   -1.6098   -6.3926   -3.8871 C   0  0  0  0  0  0  0  0  0  0  0  0
   -0.6989   -6.7551   -5.0685 C   0  0  2  0  0  0  0  0  0  0  0  0
   -1.1347   -5.9655   -6.3197 C   0  0  0  0  0  0  0  0  0  0  0  0
    0.7208   -8.7883   -7.3575 O   0  0  0  0  0  0  0  0  0  0  0  0
   -2.0880   -9.4655   -9.0117 H   0  0  0  0  0  0  0  0  0  0  0  0
   -0.6568   -8.6059   -9.6770 H   0  0  0  0  0  0  0  0  0  0  0  0
   -0.5092  -10.3071   -9.2023 H   0  0  0  0  0  0  0  0  0  0  0  0
   -2.3409  -10.5364   -4.9468 H   0  0  0  0  0  0  0  0  0  0  0  0
   -3.0195   -9.0441   -4.3151 H   0  0  0  0  0  0  0  0  0  0  0  0
   -1.5353  -10.3724   -2.4416 H   0  0  0  0  0  0  0  0  0  0  0  0
    1.4197   -9.2827   -5.4797 H   0  0  0  0  0  0  0  0  0  0  0  0
    1.6289   -6.5214   -6.6561 H   0  0  0  0  0  0  0  0  0  0  0  0
    2.6653   -7.2671   -5.4220 H   0  0  0  0  0  0  0  0  0  0  0  0
    0.9288   -7.0692   -3.7230 H   0  0  0  0  0  0  0  0  0  0  0  0
    3.0697   -4.9418   -4.8506 H   0  0  0  0  0  0  0  0  0  0  0  0
    2.8457   -5.3532   -3.1423 H   0  0  0  0  0  0  0  0  0  0  0  0
    2.8792   -2.5450   -5.3888 H   0  0  0  0  0  0  0  0  0  0  0  0
    3.5601   -2.3288   -1.2339 H   0  0  0  0  0  0  0  0  0  0  0  0
   -0.1150   -2.6259    1.0688 H   0  0  0  0  0  0  0  0  0  0  0  0
   -1.3144   -3.3671   -0.9434 H   0  0  0  0  0  0  0  0  0  0  0  0
   -0.0721   -1.1215   -2.8465 H   0  0  0  0  0  0  0  0  0  0  0  0
   -1.4424   -2.2100   -3.1594 H   0  0  0  0  0  0  0  0  0  0  0  0
   -0.0424   -2.1531   -4.2868 H   0  0  0  0  0  0  0  0  0  0  0  0
    0.3533   -5.3849   -2.1989 H   0  0  0  0  0  0  0  0  0  0  0  0
   -1.6632   -4.2452   -4.1860 H   0  0  0  0  0  0  0  0  0  0  0  0
   -3.1445   -4.9488   -2.5216 H   0  0  0  0  0  0  0  0  0  0  0  0
   -2.6738   -6.5005   -4.1657 H   0  0  0  0  0  0  0  0  0  0  0  0
   -1.4314   -7.0588   -3.0283 H   0  0  0  0  0  0  0  0  0  0  0  0
   -1.1309   -4.8830   -6.1354 H   0  0  0  0  0  0  0  0  0  0  0  0
   -2.1524   -6.2587   -6.6121 H   0  0  0  0  0  0  0  0  0  0  0  0
   -0.4844   -6.1480   -7.1867 H   0  0  0  0  0  0  0  0  0  0  0  0
  1  2  1  0
  1 33  1  0
  1 34  1  0
  1 35  1  0
  2  3  2  0
  2 32  1  0
  3  4  1  0
  4  5  1  1
  4  9  1  0
  4 30  1  0
  5  6  2  0
  5  7  1  0
  7  8  1  0
  7 36  1  0
  7 37  1  0
  8 38  1  0
  9 10  1  0
  9 32  1  0
  9 39  1  1
 10 11  1  0
 10 40  1  0
 10 41  1  0
 11 12  1  0
 11 30  1  0
 11 42  1  1
 12 13  1  6
 12 14  1  0
 12 26  1  0
 14 15  1  0
 14 43  1  0
 14 44  1  0
 15 16  1  1
 15 17  1  0
 15 18  1  0
 17 45  1  0
 18 19  2  0
 18 24  1  0
 19 20  1  0
 19 46  1  0
 20 21  2  0
 20 22  1  0
 22 23  2  0
 22 47  1  0
 23 24  1  0
 23 48  1  0
 24 25  1  6
 24 26  1  0
 25 49  1  0
 25 50  1  0
 25 51  1  0
 26 27  1  0
 26 52  1  1
 27 28  1  0
 27 29  1  0
 27 53  1  6
 28 54  1  0
 29 30  1  0
 29 55  1  0
 29 56  1  0
 30 31  1  6
 31 57  1  0
 31 58  1  0
 31 59  1  0
M  END

