
     RDKit          3D

 45 49  0  0  0  0  0  0  0  0999 V2000
    2.1096   -0.8936    1.6948 O   0  0  0  0  0  0  0  0  0  0  0  0
    2.6172   -0.4407    0.6672 C   0  0  0  0  0  0  0  0  0  0  0  0
    3.0685   -1.3090   -0.4311 C   0  0  0  0  0  0  0  0  0  0  0  0
    2.8575   -2.7000   -0.2584 C   0  0  0  0  0  0  0  0  0  0  0  0
    3.2490   -3.5910   -1.2323 C   0  0  0  0  0  0  0  0  0  0  0  0
    3.8768   -3.1038   -2.4319 C   0  0  0  0  0  0  0  0  0  0  0  0
    4.3082   -3.9359   -3.4793 C   0  0  0  0  0  0  0  0  0  0  0  0
    4.9153   -3.4120   -4.6291 C   0  0  0  0  0  0  0  0  0  0  0  0
    5.0956   -2.0260   -4.7367 C   0  0  0  0  0  0  0  0  0  0  0  0
    4.6800   -1.1724   -3.7173 C   0  0  0  0  0  0  0  0  0  0  0  0
    4.0598   -1.6718   -2.5337 C   0  0  0  0  0  0  0  0  0  0  0  0
    3.6689   -0.8151   -1.5642 N   0  0  0  0  0  0  0  0  0  0  0  0
    2.7302    0.9887    0.5960 N   0  0  0  0  0  0  0  0  0  0  0  0
    2.4361    1.7365    1.7936 C   0  0  0  0  0  0  0  0  0  0  0  0
    3.7545    2.1997    2.5130 C   0  0  1  0  0  0  0  0  0  0  0  0
    4.9723    1.7625    1.6900 C   0  0  0  0  0  0  0  0  0  0  0  0
    4.7847    2.3671    0.2988 C   0  0  1  0  0  0  0  0  0  0  0  0
    3.4718    1.7353   -0.3756 C   0  0  0  0  0  0  0  0  0  0  0  0
    4.6229    3.8501    0.3669 C   0  0  0  0  0  0  0  0  0  0  0  0
    4.9225    4.6421   -0.7925 C   0  0  0  0  0  0  0  0  0  0  0  0
    4.7490    6.0199   -0.7987 C   0  0  0  0  0  0  0  0  0  0  0  0
    4.2721    6.6431    0.3433 C   0  0  0  0  0  0  0  0  0  0  0  0
    3.9534    5.8781    1.5290 C   0  0  0  0  0  0  0  0  0  0  0  0
    3.5403    6.3724    2.5642 O   0  0  0  0  0  0  0  0  0  0  0  0
    4.1495    4.4514    1.4599 N   0  0  0  0  0  0  0  0  0  0  0  0
    3.8263    3.7060    2.7183 C   0  0  0  0  0  0  0  0  0  0  0  0
    2.3778   -3.0371    0.6606 H   0  0  0  0  0  0  0  0  0  0  0  0
    3.0885   -4.6651   -1.1096 H   0  0  0  0  0  0  0  0  0  0  0  0
    4.1599   -5.0160   -3.3818 H   0  0  0  0  0  0  0  0  0  0  0  0
    5.2424   -4.0772   -5.4318 H   0  0  0  0  0  0  0  0  0  0  0  0
    5.5661   -1.6076   -5.6317 H   0  0  0  0  0  0  0  0  0  0  0  0
    4.8155   -0.0917   -3.8040 H   0  0  0  0  0  0  0  0  0  0  0  0
    1.8535    1.0866    2.4558 H   0  0  0  0  0  0  0  0  0  0  0  0
    1.8132    2.6172    1.5398 H   0  0  0  0  0  0  0  0  0  0  0  0
    3.8001    1.7502    3.5163 H   0  0  0  0  0  0  0  0  0  0  0  0
    5.0197    0.6711    1.6043 H   0  0  0  0  0  0  0  0  0  0  0  0
    5.9144    2.1001    2.1541 H   0  0  0  0  0  0  0  0  0  0  0  0
    5.6419    2.1575   -0.3572 H   0  0  0  0  0  0  0  0  0  0  0  0
    3.7688    1.0418   -1.1802 H   0  0  0  0  0  0  0  0  0  0  0  0
    2.8462    2.5447   -0.8017 H   0  0  0  0  0  0  0  0  0  0  0  0
    5.2918    4.1166   -1.6715 H   0  0  0  0  0  0  0  0  0  0  0  0
    4.9876    6.6012   -1.6910 H   0  0  0  0  0  0  0  0  0  0  0  0
    4.1123    7.7188    0.4144 H   0  0  0  0  0  0  0  0  0  0  0  0
    2.8827    4.1254    3.0894 H   0  0  0  0  0  0  0  0  0  0  0  0
    4.6045    3.9871    3.4441 H   0  0  0  0  0  0  0  0  0  0  0  0
  1  2  2  0
  2  3  1  0
  2 13  1  0
  3  4  2  0
  3 12  1  0
  4  5  1  0
  4 27  1  0
  5  6  2  0
  5 28  1  0
  6  7  1  0
  6 11  1  0
  7  8  2  0
  7 29  1  0
  8  9  1  0
  8 30  1  0
  9 10  2  0
  9 31  1  0
 10 11  1  0
 10 32  1  0
 11 12  2  0
 13 14  1  0
 13 18  1  0
 14 15  1  0
 14 33  1  0
 14 34  1  0
 15 16  1  0
 15 26  1  0
 15 35  1  1
 16 17  1  0
 16 36  1  0
 16 37  1  0
 17 18  1  0
 17 19  1  0
 17 38  1  6
 18 39  1  0
 18 40  1  0
 19 20  2  0
 19 25  1  0
 20 21  1  0
 20 41  1  0
 21 22  2  0
 21 42  1  0
 22 23  1  0
 22 43  1  0
 23 24  2  0
 23 25  1  0
 25 26  1  0
 26 44  1  0
 26 45  1  0
M  END

