
     RDKit          3D

 38 40  0  0  0  0  0  0  0  0999 V2000
    2.4936   10.2815   -3.9810 C   0  0  0  0  0  0  0  0  0  0  0  0
    2.3847    9.7586   -2.6781 O   0  0  0  0  0  0  0  0  0  0  0  0
    2.9355    8.5474   -2.3997 C   0  0  0  0  0  0  0  0  0  0  0  0
    3.6269    7.7537   -3.3284 C   0  0  0  0  0  0  0  0  0  0  0  0
    4.1547    6.5202   -2.9319 C   0  0  0  0  0  0  0  0  0  0  0  0
    4.0151    6.0494   -1.6212 C   0  0  0  0  0  0  0  0  0  0  0  0
    4.5499    4.6861   -1.2201 C   0  0  0  0  0  0  0  0  0  0  0  0
    5.8314    4.3713   -1.8097 N   0  0  0  0  0  0  0  0  0  0  0  0
    6.9711    5.1882   -1.3880 C   0  0  0  0  0  0  0  0  0  0  0  0
    8.1558    4.3242   -1.7405 C   0  0  0  0  0  0  0  0  0  0  0  0
    9.5098    4.6484   -1.8211 C   0  0  0  0  0  0  0  0  0  0  0  0
   10.4170    3.6330   -2.1443 C   0  0  0  0  0  0  0  0  0  0  0  0
    9.9731    2.3255   -2.3755 C   0  0  0  0  0  0  0  0  0  0  0  0
    8.6120    1.9858   -2.2941 C   0  0  0  0  0  0  0  0  0  0  0  0
    8.1288    0.5776   -2.5360 C   0  0  0  0  0  0  0  0  0  0  0  0
    7.7170    3.0167   -1.9762 C   0  0  0  0  0  0  0  0  0  0  0  0
    6.2202    2.9612   -1.8027 C   0  0  0  0  0  0  0  0  0  0  0  0
    3.3284    6.8601   -0.7028 C   0  0  0  0  0  0  0  0  0  0  0  0
    2.7915    8.0881   -1.0798 C   0  0  0  0  0  0  0  0  0  0  0  0
    1.9806   11.2529   -3.9738 H   0  0  0  0  0  0  0  0  0  0  0  0
    2.0098    9.6287   -4.7305 H   0  0  0  0  0  0  0  0  0  0  0  0
    3.5471   10.4376   -4.2776 H   0  0  0  0  0  0  0  0  0  0  0  0
    3.7620    8.0840   -4.3588 H   0  0  0  0  0  0  0  0  0  0  0  0
    4.7007    5.9071   -3.6534 H   0  0  0  0  0  0  0  0  0  0  0  0
    3.8356    3.9102   -1.5519 H   0  0  0  0  0  0  0  0  0  0  0  0
    4.5724    4.6208   -0.1060 H   0  0  0  0  0  0  0  0  0  0  0  0
    6.9593    5.3982   -0.2910 H   0  0  0  0  0  0  0  0  0  0  0  0
    6.9752    6.1691   -1.8937 H   0  0  0  0  0  0  0  0  0  0  0  0
    9.8581    5.6689   -1.6402 H   0  0  0  0  0  0  0  0  0  0  0  0
   11.4837    3.8601   -2.2196 H   0  0  0  0  0  0  0  0  0  0  0  0
   10.7005    1.5484   -2.6277 H   0  0  0  0  0  0  0  0  0  0  0  0
    8.9604   -0.0982   -2.7838 H   0  0  0  0  0  0  0  0  0  0  0  0
    7.4026    0.5370   -3.3660 H   0  0  0  0  0  0  0  0  0  0  0  0
    7.6169    0.1686   -1.6479 H   0  0  0  0  0  0  0  0  0  0  0  0
    5.9638    2.4456   -0.8447 H   0  0  0  0  0  0  0  0  0  0  0  0
    5.7037    2.4009   -2.6041 H   0  0  0  0  0  0  0  0  0  0  0  0
    3.2127    6.5234    0.3320 H   0  0  0  0  0  0  0  0  0  0  0  0
    2.2587    8.7196   -0.3659 H   0  0  0  0  0  0  0  0  0  0  0  0
  1  2  1  0
  1 20  1  0
  1 21  1  0
  1 22  1  0
  2  3  1  0
  3  4  2  0
  3 19  1  0
  4  5  1  0
  4 23  1  0
  5  6  2  0
  5 24  1  0
  6  7  1  0
  6 18  1  0
  7  8  1  0
  7 25  1  0
  7 26  1  0
  8  9  1  0
  8 17  1  0
  9 10  1  0
  9 27  1  0
  9 28  1  0
 10 11  1  0
 10 16  2  0
 11 12  2  0
 11 29  1  0
 12 13  1  0
 12 30  1  0
 13 14  2  0
 13 31  1  0
 14 15  1  0
 14 16  1  0
 15 32  1  0
 15 33  1  0
 15 34  1  0
 16 17  1  0
 17 35  1  0
 17 36  1  0
 18 19  2  0
 18 37  1  0
 19 38  1  0
M  END

