
     RDKit          3D

 50 51  0  0  0  0  0  0  0  0999 V2000
    1.1686   -0.4569    0.3837 C   0  0  0  0  0  0  0  0  0  0  0  0
    2.5639   -0.0945    0.5377 N   0  0  0  0  0  0  0  0  0  0  0  0
    3.1367    0.6481   -0.5807 C   0  0  1  0  0  0  0  0  0  0  0  0
    2.6183    2.0848   -0.6032 C   0  0  0  0  0  0  0  0  0  0  0  0
    2.3860    2.7803    0.5866 C   0  0  0  0  0  0  0  0  0  0  0  0
    1.8941    4.0963    0.6210 C   0  0  0  0  0  0  0  0  0  0  0  0
    1.6757    4.8021    1.9382 C   0  0  0  0  0  0  0  0  0  0  0  0
    1.6171    4.7150   -0.6010 C   0  0  0  0  0  0  0  0  0  0  0  0
    1.8145    4.0452   -1.8138 C   0  0  0  0  0  0  0  0  0  0  0  0
    2.3099    2.7354   -1.8230 C   0  0  0  0  0  0  0  0  0  0  0  0
    2.5132    2.0198   -2.9687 O   0  0  0  0  0  0  0  0  0  0  0  0
    2.1769    2.5884   -4.2119 C   0  0  0  0  0  0  0  0  0  0  0  0
    4.7112    0.5081   -0.5223 C   0  0  1  0  0  0  0  0  0  0  0  0
    5.0077   -0.9038   -0.4337 O   0  0  0  0  0  0  0  0  0  0  0  0
    4.7908   -1.7368   -1.5473 C   0  0  0  0  0  0  0  0  0  0  0  0
    5.3486    1.1358   -1.7741 C   0  0  0  0  0  0  0  0  0  0  0  0
    6.8827    1.1036   -1.8731 C   0  0  0  0  0  0  0  0  0  0  0  0
    7.5981    2.0988   -0.9443 C   0  0  0  0  0  0  0  0  0  0  0  0
    7.8199    1.6341    0.5085 C   0  0  0  0  0  0  0  0  0  0  0  0
    6.7308    0.7305    1.1129 C   0  0  0  0  0  0  0  0  0  0  0  0
    5.2703    1.0937    0.7953 C   0  0  0  0  0  0  0  0  0  0  0  0
    0.8540   -1.0890    1.2294 H   0  0  0  0  0  0  0  0  0  0  0  0
    0.9402   -1.0071   -0.5576 H   0  0  0  0  0  0  0  0  0  0  0  0
    0.5321    0.4431    0.3925 H   0  0  0  0  0  0  0  0  0  0  0  0
    3.1359   -0.9244    0.6833 H   0  0  0  0  0  0  0  0  0  0  0  0
    2.8352    0.2009   -1.5489 H   0  0  0  0  0  0  0  0  0  0  0  0
    2.5792    2.2491    1.5213 H   0  0  0  0  0  0  0  0  0  0  0  0
    2.6239    4.9396    2.4856 H   0  0  0  0  0  0  0  0  0  0  0  0
    1.0073    4.2254    2.5993 H   0  0  0  0  0  0  0  0  0  0  0  0
    1.2280    5.7969    1.7939 H   0  0  0  0  0  0  0  0  0  0  0  0
    1.2302    5.7381   -0.6177 H   0  0  0  0  0  0  0  0  0  0  0  0
    1.5744    4.5553   -2.7467 H   0  0  0  0  0  0  0  0  0  0  0  0
    2.7713    3.4952   -4.4261 H   0  0  0  0  0  0  0  0  0  0  0  0
    1.1043    2.8483   -4.2707 H   0  0  0  0  0  0  0  0  0  0  0  0
    2.4010    1.8303   -4.9748 H   0  0  0  0  0  0  0  0  0  0  0  0
    4.9861   -2.7667   -1.2112 H   0  0  0  0  0  0  0  0  0  0  0  0
    5.4746   -1.5180   -2.3874 H   0  0  0  0  0  0  0  0  0  0  0  0
    3.7540   -1.6922   -1.9297 H   0  0  0  0  0  0  0  0  0  0  0  0
    5.0210    2.1859   -1.8244 H   0  0  0  0  0  0  0  0  0  0  0  0
    4.9120    0.6598   -2.6656 H   0  0  0  0  0  0  0  0  0  0  0  0
    7.1451    1.3525   -2.9156 H   0  0  0  0  0  0  0  0  0  0  0  0
    7.2611    0.0804   -1.7052 H   0  0  0  0  0  0  0  0  0  0  0  0
    7.0190    3.0395   -0.9484 H   0  0  0  0  0  0  0  0  0  0  0  0
    8.5791    2.3604   -1.3762 H   0  0  0  0  0  0  0  0  0  0  0  0
    7.9475    2.5319    1.1389 H   0  0  0  0  0  0  0  0  0  0  0  0
    8.7798    1.0919    0.5737 H   0  0  0  0  0  0  0  0  0  0  0  0
    6.8600    0.7348    2.2084 H   0  0  0  0  0  0  0  0  0  0  0  0
    6.8897   -0.3128    0.8033 H   0  0  0  0  0  0  0  0  0  0  0  0
    5.1331    2.1864    0.7796 H   0  0  0  0  0  0  0  0  0  0  0  0
    4.6303    0.7153    1.6051 H   0  0  0  0  0  0  0  0  0  0  0  0
  1  2  1  0
  1 22  1  0
  1 23  1  0
  1 24  1  0
  2  3  1  0
  2 25  1  0
  3  4  1  0
  3 13  1  0
  3 26  1  6
  4  5  2  0
  4 10  1  0
  5  6  1  0
  5 27  1  0
  6  7  1  0
  6  8  2  0
  7 28  1  0
  7 29  1  0
  7 30  1  0
  8  9  1  0
  8 31  1  0
  9 10  2  0
  9 32  1  0
 10 11  1  0
 11 12  1  0
 12 33  1  0
 12 34  1  0
 12 35  1  0
 13 14  1  1
 13 16  1  0
 13 21  1  0
 14 15  1  0
 15 36  1  0
 15 37  1  0
 15 38  1  0
 16 17  1  0
 16 39  1  0
 16 40  1  0
 17 18  1  0
 17 41  1  0
 17 42  1  0
 18 19  1  0
 18 43  1  0
 18 44  1  0
 19 20  1  0
 19 45  1  0
 19 46  1  0
 20 21  1  0
 20 47  1  0
 20 48  1  0
 21 49  1  0
 21 50  1  0
M  END

