
     RDKit          3D

 39 40  0  0  0  0  0  0  0  0999 V2000
    2.8051   -2.2093   -5.4033 N   0  0  0  0  0  0  0  0  0  0  0  0
    3.8406   -1.4974   -4.6629 C   0  0  0  0  0  0  0  0  0  0  0  0
    3.7593   -1.7420   -3.1662 C   0  0  0  0  0  0  0  0  0  0  0  0
    4.2380   -0.7866   -2.2574 C   0  0  0  0  0  0  0  0  0  0  0  0
    4.1997   -1.0496   -0.8869 C   0  0  0  0  0  0  0  0  0  0  0  0
    3.6853   -2.2487   -0.3877 C   0  0  0  0  0  0  0  0  0  0  0  0
    3.1957   -3.2065   -1.2925 C   0  0  0  0  0  0  0  0  0  0  0  0
    2.6424   -4.4415   -0.8974 N   0  0  0  0  0  0  0  0  0  0  0  0
    2.5295   -4.9698    0.3754 C   0  0  0  0  0  0  0  0  0  0  0  0
    2.9529   -4.4402    1.3891 O   0  0  0  0  0  0  0  0  0  0  0  0
    1.8947   -6.2078    0.3979 N   0  0  0  0  0  0  0  0  0  0  0  0
    1.5764   -6.8287    1.6882 C   0  0  1  0  0  0  0  0  0  0  0  0
    0.4739   -7.8852    1.4979 C   0  0  0  0  0  0  0  0  0  0  0  0
    0.8920   -9.0900    0.6484 C   0  0  0  0  0  0  0  0  0  0  0  0
    2.3238   -9.9445    1.3789 S   0  0  2  0  0  0  0  0  0  0  0  0
    2.8575  -10.8972    0.3972 O   0  0  0  0  0  0  0  0  0  0  0  0
    1.9219  -10.3881    2.7253 O   0  0  0  0  0  0  0  0  0  0  0  0
    3.4796   -8.5591    1.5741 C   0  0  0  0  0  0  0  0  0  0  0  0
    2.8386   -7.4141    2.3578 C   0  0  0  0  0  0  0  0  0  0  0  0
    3.2388   -2.9413   -2.6726 C   0  0  0  0  0  0  0  0  0  0  0  0
    2.9671   -2.1348   -6.4067 H   0  0  0  0  0  0  0  0  0  0  0  0
    1.8898   -1.7953   -5.2213 H   0  0  0  0  0  0  0  0  0  0  0  0
    3.8572   -0.4004   -4.8348 H   0  0  0  0  0  0  0  0  0  0  0  0
    4.8185   -1.8683   -5.0227 H   0  0  0  0  0  0  0  0  0  0  0  0
    4.6390    0.1626   -2.6241 H   0  0  0  0  0  0  0  0  0  0  0  0
    4.5742   -0.3028   -0.1816 H   0  0  0  0  0  0  0  0  0  0  0  0
    3.6585   -2.4522    0.6798 H   0  0  0  0  0  0  0  0  0  0  0  0
    2.3695   -5.0415   -1.6668 H   0  0  0  0  0  0  0  0  0  0  0  0
    1.2495   -6.3999   -0.3610 H   0  0  0  0  0  0  0  0  0  0  0  0
    1.1904   -6.0500    2.3679 H   0  0  0  0  0  0  0  0  0  0  0  0
   -0.4179   -7.4158    1.0462 H   0  0  0  0  0  0  0  0  0  0  0  0
    0.1683   -8.2501    2.4902 H   0  0  0  0  0  0  0  0  0  0  0  0
    1.1863   -8.8328   -0.3803 H   0  0  0  0  0  0  0  0  0  0  0  0
    0.1105   -9.8635    0.6035 H   0  0  0  0  0  0  0  0  0  0  0  0
    3.7849   -8.2675    0.5586 H   0  0  0  0  0  0  0  0  0  0  0  0
    4.3449   -8.9978    2.0938 H   0  0  0  0  0  0  0  0  0  0  0  0
    3.5709   -6.6037    2.4857 H   0  0  0  0  0  0  0  0  0  0  0  0
    2.5692   -7.7745    3.3633 H   0  0  0  0  0  0  0  0  0  0  0  0
    2.8550   -3.6696   -3.3927 H   0  0  0  0  0  0  0  0  0  0  0  0
  1  2  1  0
  1 21  1  0
  1 22  1  0
  2  3  1  0
  2 23  1  0
  2 24  1  0
  3  4  2  0
  3 20  1  0
  4  5  1  0
  4 25  1  0
  5  6  2  0
  5 26  1  0
  6  7  1  0
  6 27  1  0
  7  8  1  0
  7 20  2  0
  8  9  1  0
  8 28  1  0
  9 10  2  0
  9 11  1  0
 11 12  1  0
 11 29  1  0
 12 13  1  0
 12 19  1  0
 12 30  1  1
 13 14  1  0
 13 31  1  0
 13 32  1  0
 15 14  1  6
 14 33  1  0
 14 34  1  0
 15 16  2  0
 15 17  2  0
 15 18  1  0
 18 19  1  0
 18 35  1  0
 18 36  1  0
 19 37  1  0
 19 38  1  0
 20 39  1  0
M  END

