
     RDKit          3D

 59 62  0  0  0  0  0  0  0  0999 V2000
    2.0887   -0.5660    0.8093 C   0  0  0  0  0  0  0  0  0  0  0  0
    2.8535   -0.0298   -0.2487 O   0  0  0  0  0  0  0  0  0  0  0  0
    3.1205   -0.8036   -1.3270 C   0  0  0  0  0  0  0  0  0  0  0  0
    2.7103   -2.1157   -1.4972 C   0  0  0  0  0  0  0  0  0  0  0  0
    3.0703   -2.8933   -2.6242 C   0  0  0  0  0  0  0  0  0  0  0  0
    3.8718   -2.3325   -3.6448 C   0  0  0  0  0  0  0  0  0  0  0  0
    4.1918   -0.9308   -3.5040 C   0  0  0  0  0  0  0  0  0  0  0  0
    4.8288   -0.2957   -4.5249 O   0  0  0  0  0  0  0  0  0  0  0  0
    4.3850    0.9854   -4.9593 C   0  0  0  0  0  0  0  0  0  0  0  0
    3.8789   -0.2012   -2.3509 C   0  0  0  0  0  0  0  0  0  0  0  0
    4.2775    1.1021   -2.2283 O   0  0  0  0  0  0  0  0  0  0  0  0
    5.4098    1.3157   -1.3951 C   0  0  0  0  0  0  0  0  0  0  0  0
    4.4603   -2.9976   -4.9192 C   0  0  1  0  0  0  0  0  0  0  0  0
    3.8629   -2.3495   -6.2307 C   0  0  0  0  0  0  0  0  0  0  0  0
    5.0853   -1.9034   -7.0475 C   0  0  0  0  0  0  0  0  0  0  0  0
    6.2512   -2.5297   -6.2784 C   0  0  1  0  0  0  0  0  0  0  0  0
    7.4167   -1.8330   -6.4437 O   0  0  0  0  0  0  0  0  0  0  0  0
    8.4933   -2.1131   -5.5596 C   0  0  0  0  0  0  0  0  0  0  0  0
    5.8579   -2.6024   -4.9423 O   0  0  0  0  0  0  0  0  0  0  0  0
    6.4558   -4.0823   -6.7699 C   0  0  0  0  0  0  0  0  0  0  0  0
    6.3060   -4.2865   -8.0067 O   0  0  0  0  0  0  0  0  0  0  0  0
    5.8907   -4.9957   -5.6863 C   0  0  0  0  0  0  0  0  0  0  0  0
    4.5071   -4.5751   -5.1247 C   0  0  1  0  0  0  0  0  0  0  0  0
    4.1546   -5.5156   -3.9573 C   0  0  1  0  0  0  0  0  0  0  0  0
    5.0734   -5.3981   -2.8342 N   0  0  0  0  0  0  0  0  0  0  0  0
    5.6232   -6.3918   -2.0594 C   0  0  0  0  0  0  0  0  0  0  0  0
    5.3510   -7.8312   -2.4740 C   0  0  0  0  0  0  0  0  0  0  0  0
    6.3099   -6.1217   -1.0895 O   0  0  0  0  0  0  0  0  0  0  0  0
    2.6775   -5.3517   -3.5674 C   0  0  0  0  0  0  0  0  0  0  0  0
    2.4515   -4.2868   -2.5114 C   0  0  0  0  0  0  0  0  0  0  0  0
    2.0010    0.2273    1.5635 H   0  0  0  0  0  0  0  0  0  0  0  0
    2.5785   -1.4443    1.2665 H   0  0  0  0  0  0  0  0  0  0  0  0
    1.0765   -0.8559    0.4756 H   0  0  0  0  0  0  0  0  0  0  0  0
    2.0966   -2.5909   -0.7321 H   0  0  0  0  0  0  0  0  0  0  0  0
    4.5665    1.0261   -6.0446 H   0  0  0  0  0  0  0  0  0  0  0  0
    4.9366    1.7978   -4.4672 H   0  0  0  0  0  0  0  0  0  0  0  0
    3.3095    1.1287   -4.7677 H   0  0  0  0  0  0  0  0  0  0  0  0
    5.6239    2.3938   -1.4196 H   0  0  0  0  0  0  0  0  0  0  0  0
    6.2912    0.7636   -1.7671 H   0  0  0  0  0  0  0  0  0  0  0  0
    5.2043    1.0150   -0.3546 H   0  0  0  0  0  0  0  0  0  0  0  0
    3.2087   -1.5048   -5.9882 H   0  0  0  0  0  0  0  0  0  0  0  0
    3.2520   -3.0846   -6.7720 H   0  0  0  0  0  0  0  0  0  0  0  0
    5.2186   -0.8145   -7.0359 H   0  0  0  0  0  0  0  0  0  0  0  0
    5.0815   -2.2586   -8.0849 H   0  0  0  0  0  0  0  0  0  0  0  0
    9.3385   -1.4995   -5.8980 H   0  0  0  0  0  0  0  0  0  0  0  0
    8.7704   -3.1789   -5.6101 H   0  0  0  0  0  0  0  0  0  0  0  0
    8.2310   -1.8504   -4.5228 H   0  0  0  0  0  0  0  0  0  0  0  0
    6.6053   -5.0291   -4.8512 H   0  0  0  0  0  0  0  0  0  0  0  0
    5.8181   -6.0061   -6.1152 H   0  0  0  0  0  0  0  0  0  0  0  0
    3.7628   -4.8111   -5.8978 H   0  0  0  0  0  0  0  0  0  0  0  0
    4.2802   -6.5283   -4.3665 H   0  0  0  0  0  0  0  0  0  0  0  0
    5.2848   -4.4633   -2.4925 H   0  0  0  0  0  0  0  0  0  0  0  0
    4.2732   -8.0561   -2.5041 H   0  0  0  0  0  0  0  0  0  0  0  0
    5.8348   -8.4856   -1.7390 H   0  0  0  0  0  0  0  0  0  0  0  0
    5.7656   -8.0462   -3.4720 H   0  0  0  0  0  0  0  0  0  0  0  0
    2.2858   -6.3019   -3.1665 H   0  0  0  0  0  0  0  0  0  0  0  0
    2.0926   -5.1428   -4.4784 H   0  0  0  0  0  0  0  0  0  0  0  0
    2.7912   -4.6965   -1.5461 H   0  0  0  0  0  0  0  0  0  0  0  0
    1.3637   -4.1440   -2.3945 H   0  0  0  0  0  0  0  0  0  0  0  0
  1  2  1  0
  1 31  1  0
  1 32  1  0
  1 33  1  0
  2  3  1  0
  3  4  2  0
  3 10  1  0
  4  5  1  0
  4 34  1  0
  5  6  2  0
  5 30  1  0
  6  7  1  0
  6 13  1  0
  7  8  1  0
  7 10  2  0
  8  9  1  0
  9 35  1  0
  9 36  1  0
  9 37  1  0
 10 11  1  0
 11 12  1  0
 12 38  1  0
 12 39  1  0
 12 40  1  0
 13 14  1  6
 13 19  1  0
 13 23  1  0
 14 15  1  0
 14 41  1  0
 14 42  1  0
 15 16  1  0
 15 43  1  0
 15 44  1  0
 16 17  1  1
 16 19  1  0
 16 20  1  0
 17 18  1  0
 18 45  1  0
 18 46  1  0
 18 47  1  0
 20 21  2  0
 20 22  1  0
 22 23  1  0
 22 48  1  0
 22 49  1  0
 23 24  1  0
 23 50  1  6
 24 25  1  0
 24 29  1  0
 24 51  1  6
 25 26  1  0
 25 52  1  0
 26 27  1  0
 26 28  2  0
 27 53  1  0
 27 54  1  0
 27 55  1  0
 29 30  1  0
 29 56  1  0
 29 57  1  0
 30 58  1  0
 30 59  1  0
M  END

