
     RDKit          3D

 40 42  0  0  0  0  0  0  0  0999 V2000
    3.3250   -5.0318    0.9143 C   0  0  0  0  0  0  0  0  0  0  0  0
    4.5362   -4.1790    0.5843 C   0  0  0  0  0  0  0  0  0  0  0  0
    5.6618   -4.7922    0.9358 N   0  0  0  0  0  0  0  0  0  0  0  0
    6.8109   -4.0110    0.7722 O   0  0  0  0  0  0  0  0  0  0  0  0
    4.4169   -2.9177   -0.1172 C   0  0  0  0  0  0  0  0  0  0  0  0
    5.4396   -2.3655   -0.9348 C   0  0  0  0  0  0  0  0  0  0  0  0
    5.1899   -1.2409   -1.7460 C   0  0  0  0  0  0  0  0  0  0  0  0
    6.1773   -0.8320   -2.5405 F   0  0  0  0  0  0  0  0  0  0  0  0
    3.9807   -0.5276   -1.7790 C   0  0  0  0  0  0  0  0  0  0  0  0
    2.9906   -0.9602   -0.8800 C   0  0  0  0  0  0  0  0  0  0  0  0
    3.2036   -2.0887   -0.0550 C   0  0  0  0  0  0  0  0  0  0  0  0
    2.3328   -2.4374    0.8993 O   0  0  0  0  0  0  0  0  0  0  0  0
    1.1697   -1.6616    1.2028 C   0  0  0  0  0  0  0  0  0  0  0  0
    0.4808   -2.2662    2.4131 C   0  0  2  0  0  0  0  0  0  0  0  0
   -0.8138   -1.4874    2.8262 C   0  0  0  0  0  0  0  0  0  0  0  0
   -0.6199   -1.2610    4.3439 C   0  0  2  0  0  0  0  0  0  0  0  0
    0.4576   -0.1702    4.5430 C   0  0  0  0  0  0  0  0  0  0  0  0
    1.7770   -0.9002    4.1342 C   0  0  0  0  0  0  0  0  0  0  0  0
    1.2923   -2.3128    3.7369 C   0  0  1  0  0  0  0  0  0  0  0  0
    0.1512   -2.5345    4.7525 C   0  0  0  0  0  0  0  0  0  0  0  0
    3.6677   -6.0713    1.0161 H   0  0  0  0  0  0  0  0  0  0  0  0
    2.5556   -4.9895    0.1275 H   0  0  0  0  0  0  0  0  0  0  0  0
    2.8435   -4.7446    1.8632 H   0  0  0  0  0  0  0  0  0  0  0  0
    7.5000   -4.6013    1.1020 H   0  0  0  0  0  0  0  0  0  0  0  0
    6.4231   -2.8249   -0.9717 H   0  0  0  0  0  0  0  0  0  0  0  0
    3.8485    0.3229   -2.4461 H   0  0  0  0  0  0  0  0  0  0  0  0
    2.0625   -0.3961   -0.7945 H   0  0  0  0  0  0  0  0  0  0  0  0
    0.4952   -1.6756    0.3277 H   0  0  0  0  0  0  0  0  0  0  0  0
    1.4696   -0.6145    1.3789 H   0  0  0  0  0  0  0  0  0  0  0  0
    0.2174   -3.3027    2.1460 H   0  0  0  0  0  0  0  0  0  0  0  0
   -1.7163   -2.0827    2.6187 H   0  0  0  0  0  0  0  0  0  0  0  0
   -0.9264   -0.5336    2.2833 H   0  0  0  0  0  0  0  0  0  0  0  0
   -1.5584   -1.0638    4.8825 H   0  0  0  0  0  0  0  0  0  0  0  0
    0.4923    0.1583    5.5936 H   0  0  0  0  0  0  0  0  0  0  0  0
    0.2548    0.7248    3.9332 H   0  0  0  0  0  0  0  0  0  0  0  0
    2.4725   -0.9716    4.9845 H   0  0  0  0  0  0  0  0  0  0  0  0
    2.3269   -0.3861    3.3314 H   0  0  0  0  0  0  0  0  0  0  0  0
    2.0898   -3.0685    3.7261 H   0  0  0  0  0  0  0  0  0  0  0  0
    0.4936   -2.5219    5.7996 H   0  0  0  0  0  0  0  0  0  0  0  0
   -0.4139   -3.4647    4.5793 H   0  0  0  0  0  0  0  0  0  0  0  0
  1  2  1  0
  1 21  1  0
  1 22  1  0
  1 23  1  0
  2  3  2  0
  2  5  1  0
  3  4  1  0
  4 24  1  0
  5  6  2  0
  5 11  1  0
  6  7  1  0
  6 25  1  0
  7  8  1  0
  7  9  2  0
  9 10  1  0
  9 26  1  0
 10 11  2  0
 10 27  1  0
 11 12  1  0
 12 13  1  0
 13 14  1  0
 13 28  1  0
 13 29  1  0
 14 15  1  0
 14 19  1  0
 14 30  1  6
 15 16  1  0
 15 31  1  0
 15 32  1  0
 16 17  1  0
 16 20  1  0
 16 33  1  1
 17 18  1  0
 17 34  1  0
 17 35  1  0
 18 19  1  0
 18 36  1  0
 18 37  1  0
 19 20  1  0
 19 38  1  6
 20 39  1  0
 20 40  1  0
M  END

