
     RDKit          3D

 41 44  0  0  0  0  0  0  0  0999 V2000
    0.7972    0.4228   -0.1402 C   0  0  0  0  0  0  0  0  0  0  0  0
    2.1704    0.0835    0.1595 N   0  0  0  0  0  0  0  0  0  0  0  0
    2.9266    0.9700    1.0406 C   0  0  0  0  0  0  0  0  0  0  0  0
    4.4044    0.6128    0.7028 C   0  0  2  0  0  0  0  0  0  0  0  0
    5.0314   -0.3186    1.7557 C   0  0  0  0  0  0  0  0  0  0  0  0
    6.4223   -0.7726    1.3133 C   0  0  0  0  0  0  0  0  0  0  0  0
    7.3396    0.3680    0.9219 C   0  0  0  0  0  0  0  0  0  0  0  0
    6.7847    1.6170    0.5949 C   0  0  0  0  0  0  0  0  0  0  0  0
    7.6161    2.7120    0.2958 C   0  0  0  0  0  0  0  0  0  0  0  0
    9.0039    2.5726    0.3303 C   0  0  0  0  0  0  0  0  0  0  0  0
    9.5704    1.3417    0.6319 C   0  0  0  0  0  0  0  0  0  0  0  0
    8.7705    0.2002    0.9156 C   0  0  0  0  0  0  0  0  0  0  0  0
    9.4415   -1.0534    1.1943 C   0  0  0  0  0  0  0  0  0  0  0  0
   10.7943   -1.1330    1.7380 C   0  0  0  0  0  0  0  0  0  0  0  0
   11.4058   -2.2597    1.9208 N   0  0  0  0  0  0  0  0  0  0  0  0
   10.9477   -3.4901    1.6299 C   0  0  0  0  0  0  0  0  0  0  0  0
    9.6965   -3.4516    1.0929 N   0  0  0  0  0  0  0  0  0  0  0  0
    8.9864   -2.3893    0.8857 C   0  0  0  0  0  0  0  0  0  0  0  0
    5.2853    1.8647    0.6050 C   0  0  0  0  0  0  0  0  0  0  0  0
    4.3234   -0.0973   -0.5851 N   0  0  0  0  0  0  0  0  0  0  0  0
    3.0817   -0.3408   -0.8094 C   0  0  0  0  0  0  0  0  0  0  0  0
    2.6123   -0.9661   -1.9472 N   0  0  0  0  0  0  0  0  0  0  0  0
    0.6961    1.4130   -0.6327 H   0  0  0  0  0  0  0  0  0  0  0  0
    0.2072    0.4462    0.7898 H   0  0  0  0  0  0  0  0  0  0  0  0
    0.3386   -0.3283   -0.7986 H   0  0  0  0  0  0  0  0  0  0  0  0
    2.6732    0.8077    2.1018 H   0  0  0  0  0  0  0  0  0  0  0  0
    2.7059    2.0309    0.7991 H   0  0  0  0  0  0  0  0  0  0  0  0
    4.3819   -1.1959    1.9122 H   0  0  0  0  0  0  0  0  0  0  0  0
    5.0928    0.2189    2.7193 H   0  0  0  0  0  0  0  0  0  0  0  0
    6.2841   -1.4523    0.4534 H   0  0  0  0  0  0  0  0  0  0  0  0
    6.8894   -1.3629    2.1192 H   0  0  0  0  0  0  0  0  0  0  0  0
    7.1648    3.6755    0.0432 H   0  0  0  0  0  0  0  0  0  0  0  0
    9.6493    3.4242    0.0974 H   0  0  0  0  0  0  0  0  0  0  0  0
   10.6573    1.2408    0.5967 H   0  0  0  0  0  0  0  0  0  0  0  0
   11.3258   -0.2259    2.0445 H   0  0  0  0  0  0  0  0  0  0  0  0
   11.5041   -4.4058    1.7999 H   0  0  0  0  0  0  0  0  0  0  0  0
    8.0075   -2.5478    0.4210 H   0  0  0  0  0  0  0  0  0  0  0  0
    5.0040    2.4250   -0.3021 H   0  0  0  0  0  0  0  0  0  0  0  0
    5.0472    2.5250    1.4607 H   0  0  0  0  0  0  0  0  0  0  0  0
    3.3609   -1.3885   -2.4872 H   0  0  0  0  0  0  0  0  0  0  0  0
    1.8208   -1.5880   -1.8177 H   0  0  0  0  0  0  0  0  0  0  0  0
  1  2  1  0
  1 23  1  0
  1 24  1  0
  1 25  1  0
  2  3  1  0
  2 21  1  0
  3  4  1  0
  3 26  1  0
  3 27  1  0
  4  5  1  0
  4 19  1  0
  4 20  1  6
  5  6  1  0
  5 28  1  0
  5 29  1  0
  6  7  1  0
  6 30  1  0
  6 31  1  0
  7  8  2  0
  7 12  1  0
  8  9  1  0
  8 19  1  0
  9 10  2  0
  9 32  1  0
 10 11  1  0
 10 33  1  0
 11 12  2  0
 11 34  1  0
 12 13  1  0
 13 14  2  0
 13 18  1  0
 14 15  1  0
 14 35  1  0
 15 16  2  0
 16 17  1  0
 16 36  1  0
 17 18  2  0
 18 37  1  0
 19 38  1  0
 19 39  1  0
 20 21  2  0
 21 22  1  0
 22 40  1  0
 22 41  1  0
M  END

