
     RDKit          3D

 24 24  0  0  0  0  0  0  0  0999 V2000
    1.0173   -0.0650   -0.1606 C   0  0  0  0  0  0  0  0  0  0  0  0
    2.5429   -0.0958   -0.0597 C   0  0  0  0  0  0  0  0  0  0  0  0
    3.0711    0.4014    1.2887 C   0  0  0  0  0  0  0  0  0  0  0  0
    4.6057    0.3872    1.3800 C   0  0  0  0  0  0  0  0  0  0  0  0
    5.1172    0.8280    2.7153 C   0  0  0  0  0  0  0  0  0  0  0  0
    4.8693    0.1448    3.8131 N   0  0  0  0  0  0  0  0  0  0  0  0
    5.2989    0.4972    5.0717 C   0  0  0  0  0  0  0  0  0  0  0  0
    6.0296    1.6740    5.2423 C   0  0  0  0  0  0  0  0  0  0  0  0
    6.4326    2.1304    6.4844 N   0  0  0  0  0  0  0  0  0  0  0  0
    6.2935    2.4050    4.0664 C   0  0  0  0  0  0  0  0  0  0  0  0
    5.8088    1.9121    2.8807 N   0  0  0  0  0  0  0  0  0  0  0  0
    0.6688   -0.4298   -1.1400 H   0  0  0  0  0  0  0  0  0  0  0  0
    0.6280    0.9584   -0.0285 H   0  0  0  0  0  0  0  0  0  0  0  0
    0.5522   -0.6961    0.6151 H   0  0  0  0  0  0  0  0  0  0  0  0
    2.9798    0.5154   -0.8707 H   0  0  0  0  0  0  0  0  0  0  0  0
    2.9049   -1.1257   -0.2330 H   0  0  0  0  0  0  0  0  0  0  0  0
    2.6608   -0.2199    2.1032 H   0  0  0  0  0  0  0  0  0  0  0  0
    2.7090    1.4284    1.4737 H   0  0  0  0  0  0  0  0  0  0  0  0
    5.0471    1.0424    0.6135 H   0  0  0  0  0  0  0  0  0  0  0  0
    4.9721   -0.6373    1.1918 H   0  0  0  0  0  0  0  0  0  0  0  0
    5.0464   -0.1707    5.8969 H   0  0  0  0  0  0  0  0  0  0  0  0
    6.4402    1.4378    7.2253 H   0  0  0  0  0  0  0  0  0  0  0  0
    7.2688    2.7053    6.4878 H   0  0  0  0  0  0  0  0  0  0  0  0
    6.8031    3.3682    4.0532 H   0  0  0  0  0  0  0  0  0  0  0  0
  1  2  1  0
  1 12  1  0
  1 13  1  0
  1 14  1  0
  2  3  1  0
  2 15  1  0
  2 16  1  0
  3  4  1  0
  3 17  1  0
  3 18  1  0
  4  5  1  0
  4 19  1  0
  4 20  1  0
  5  6  2  0
  5 11  1  0
  6  7  1  0
  7  8  2  0
  7 21  1  0
  8  9  1  0
  8 10  1  0
  9 22  1  0
  9 23  1  0
 10 11  2  0
 10 24  1  0
M  END

