
     RDKit          3D

 54 57  0  0  0  0  0  0  0  0999 V2000
    3.4001    0.0640   -1.2401 C   0  0  0  0  0  0  0  0  0  0  0  0
    3.0302   -0.7803   -0.0048 C   0  0  0  0  0  0  0  0  0  0  0  0
    4.0602   -0.7680    1.0925 C   0  0  0  0  0  0  0  0  0  0  0  0
    5.0518   -1.7921    1.2281 C   0  0  0  0  0  0  0  0  0  0  0  0
    6.0045   -1.7641    2.2331 C   0  0  0  0  0  0  0  0  0  0  0  0
    6.0621   -0.7047    3.1853 C   0  0  0  0  0  0  0  0  0  0  0  0
    5.1135    0.3366    3.0808 C   0  0  0  0  0  0  0  0  0  0  0  0
    4.8074    1.5271    3.8573 C   0  0  0  0  0  0  0  0  0  0  0  0
    5.4640    2.0850    4.9879 C   0  0  0  0  0  0  0  0  0  0  0  0
    4.8854    3.1442    5.6801 C   0  0  0  0  0  0  0  0  0  0  0  0
    5.4549    3.7596    6.9167 C   0  0  0  0  0  0  0  0  0  0  0  0
    6.6823    3.1206    7.3670 N   0  0  0  0  0  0  0  0  0  0  0  0
    7.1502    3.1370    8.6604 C   0  0  0  0  0  0  0  0  0  0  0  0
    8.2375    2.6714    8.9613 O   0  0  0  0  0  0  0  0  0  0  0  0
    6.2474    3.8155    9.7025 C   0  0  0  0  0  0  0  0  0  0  0  0
    6.7249    3.5557   11.4404 S   0  0  0  0  0  0  0  0  0  0  0  0
    8.3592    4.3862   11.5438 C   0  0  1  0  0  0  0  0  0  0  0  0
    8.3203    5.9260   11.4478 C   0  0  0  0  0  0  0  0  0  0  0  0
    9.7226    6.4069   11.8153 C   0  0  0  0  0  0  0  0  0  0  0  0
   10.1575    5.4050   13.2918 S   0  0  2  0  0  0  0  0  0  0  0  0
    9.6433    6.0987   14.4816 O   0  0  0  0  0  0  0  0  0  0  0  0
   11.5523    4.9569   13.2160 O   0  0  0  0  0  0  0  0  0  0  0  0
    8.9983    4.0188   12.8895 C   0  0  0  0  0  0  0  0  0  0  0  0
    7.5402    2.5919    6.3077 C   0  0  0  0  0  0  0  0  0  0  0  0
    6.7960    1.5599    5.4625 C   0  0  0  0  0  0  0  0  0  0  0  0
    3.6195    2.1243    3.2655 C   0  0  0  0  0  0  0  0  0  0  0  0
    3.2969    1.3630    2.1940 N   0  0  0  0  0  0  0  0  0  0  0  0
    2.5248    1.5632    1.5672 H   0  0  0  0  0  0  0  0  0  0  0  0
    4.1421    0.2664    2.0444 C   0  0  0  0  0  0  0  0  0  0  0  0
    2.6087    0.0205   -2.0075 H   0  0  0  0  0  0  0  0  0  0  0  0
    4.3368   -0.2959   -1.6937 H   0  0  0  0  0  0  0  0  0  0  0  0
    3.5557    1.1228   -0.9734 H   0  0  0  0  0  0  0  0  0  0  0  0
    2.8616   -1.8227   -0.3255 H   0  0  0  0  0  0  0  0  0  0  0  0
    2.0508   -0.4337    0.3838 H   0  0  0  0  0  0  0  0  0  0  0  0
    5.0359   -2.6264    0.5206 H   0  0  0  0  0  0  0  0  0  0  0  0
    6.7302   -2.5782    2.3062 H   0  0  0  0  0  0  0  0  0  0  0  0
    6.8094   -0.7304    3.9758 H   0  0  0  0  0  0  0  0  0  0  0  0
    3.9249    3.5498    5.3564 H   0  0  0  0  0  0  0  0  0  0  0  0
    4.6908    3.7179    7.7124 H   0  0  0  0  0  0  0  0  0  0  0  0
    5.6187    4.8500    6.7412 H   0  0  0  0  0  0  0  0  0  0  0  0
    5.2227    3.4165    9.6542 H   0  0  0  0  0  0  0  0  0  0  0  0
    6.1663    4.8916    9.4712 H   0  0  0  0  0  0  0  0  0  0  0  0
    8.9701    3.9761   10.7279 H   0  0  0  0  0  0  0  0  0  0  0  0
    7.5822    6.3276   12.1609 H   0  0  0  0  0  0  0  0  0  0  0  0
    8.0336    6.2623   10.4395 H   0  0  0  0  0  0  0  0  0  0  0  0
    9.7924    7.4607   12.1161 H   0  0  0  0  0  0  0  0  0  0  0  0
   10.4723    6.1761   11.0449 H   0  0  0  0  0  0  0  0  0  0  0  0
    8.2774    4.0031   13.7200 H   0  0  0  0  0  0  0  0  0  0  0  0
    9.5791    3.0885   12.8666 H   0  0  0  0  0  0  0  0  0  0  0  0
    8.4239    2.1588    6.7892 H   0  0  0  0  0  0  0  0  0  0  0  0
    7.8785    3.4263    5.6637 H   0  0  0  0  0  0  0  0  0  0  0  0
    6.6456    0.6328    6.0472 H   0  0  0  0  0  0  0  0  0  0  0  0
    7.4186    1.2784    4.5986 H   0  0  0  0  0  0  0  0  0  0  0  0
    3.2097    3.1250    3.3954 H   0  0  0  0  0  0  0  0  0  0  0  0
  1  2  1  0
  1 30  1  0
  1 31  1  0
  1 32  1  0
  2  3  1  0
  2 33  1  0
  2 34  1  0
  3  4  2  0
  3 29  1  0
  4  5  1  0
  4 35  1  0
  5  6  2  0
  5 36  1  0
  6  7  1  0
  6 37  1  0
  7  8  1  0
  7 29  2  0
  8  9  1  0
  8 26  2  0
  9 10  2  0
  9 25  1  0
 10 11  1  0
 10 38  1  0
 11 12  1  0
 11 39  1  0
 11 40  1  0
 12 13  1  0
 12 24  1  0
 13 14  2  0
 13 15  1  0
 15 16  1  0
 15 41  1  0
 15 42  1  0
 16 17  1  0
 17 18  1  0
 17 23  1  0
 17 43  1  6
 18 19  1  0
 18 44  1  0
 18 45  1  0
 20 19  1  6
 19 46  1  0
 19 47  1  0
 20 21  2  0
 20 22  2  0
 20 23  1  0
 23 48  1  0
 23 49  1  0
 24 25  1  0
 24 50  1  0
 24 51  1  0
 25 52  1  0
 25 53  1  0
 26 27  1  0
 26 54  1  0
 27 28  1  0
 27 29  1  0
M  END

