
     RDKit          3D

 69 74  0  0  0  0  0  0  0  0999 V2000
   11.0184    2.5960   -3.4298 C   0  0  0  0  0  0  0  0  0  0  0  0
    9.9070    1.7488   -2.8400 C   0  0  0  0  0  0  0  0  0  0  0  0
   10.3593    0.4065   -2.7839 O   0  0  0  0  0  0  0  0  0  0  0  0
    9.5414   -0.5646   -2.3081 C   0  0  0  0  0  0  0  0  0  0  0  0
    8.2401   -0.3433   -1.8298 C   0  0  0  0  0  0  0  0  0  0  0  0
    7.4840   -1.4204   -1.3553 C   0  0  0  0  0  0  0  0  0  0  0  0
    8.0017   -2.7189   -1.3698 C   0  0  0  0  0  0  0  0  0  0  0  0
    7.1773   -3.8070   -0.9354 N   0  0  0  0  0  0  0  0  0  0  0  0
    5.9026   -4.0199   -1.4106 C   0  0  0  0  0  0  0  0  0  0  0  0
    5.3877   -5.1604   -0.8253 C   0  0  0  0  0  0  0  0  0  0  0  0
    6.3940   -5.6696    0.0362 C   0  0  0  0  0  0  0  0  0  0  0  0
    7.4921   -4.8214   -0.0410 C   0  0  0  0  0  0  0  0  0  0  0  0
    8.7845   -4.9096    0.7099 C   0  0  2  0  0  0  0  0  0  0  0  0
    9.4648   -4.1062    0.4130 H   0  0  0  0  0  0  0  0  0  0  0  0
    9.5280   -6.2912    0.6040 C   0  0  1  0  0  0  0  0  0  0  0  0
    8.9611   -6.9312   -0.0888 H   0  0  0  0  0  0  0  0  0  0  0  0
   10.9652   -6.1974    0.1297 C   0  0  0  0  0  0  0  0  0  0  0  0
   12.0474   -6.6448    0.8513 C   0  0  0  0  0  0  0  0  0  0  0  0
   13.3631   -6.5672    0.2888 C   0  0  0  0  0  0  0  0  0  0  0  0
   13.4349   -6.0106   -1.0268 C   0  0  0  0  0  0  0  0  0  0  0  0
   12.2917   -5.5798   -1.6625 C   0  0  0  0  0  0  0  0  0  0  0  0
   11.0212   -5.6440   -1.1314 N   0  0  0  0  0  0  0  0  0  0  0  0
    9.3615   -6.8263    1.9743 N   0  0  0  0  0  0  0  0  0  0  0  0
    8.8940   -5.9157    2.8041 C   0  0  0  0  0  0  0  0  0  0  0  0
    8.6926   -6.1474    4.5289 S   0  0  0  0  0  0  0  0  0  0  0  0
    8.5589   -4.7908    2.2005 N   0  0  0  0  0  0  0  0  0  0  0  0
    8.0749   -3.6225    2.8731 C   0  0  0  0  0  0  0  0  0  0  0  0
    8.9744   -2.7436    3.4892 C   0  0  0  0  0  0  0  0  0  0  0  0
    8.5190   -1.6017    4.1407 C   0  0  0  0  0  0  0  0  0  0  0  0
    7.1374   -1.2894    4.2049 C   0  0  0  0  0  0  0  0  0  0  0  0
    6.6715   -0.1752    4.8925 N   0  0  0  0  0  0  0  0  0  0  0  0
    5.4288    0.4833    4.4837 C   0  0  0  0  0  0  0  0  0  0  0  0
    4.8499    1.3210    5.6204 C   0  0  0  0  0  0  0  0  0  0  0  0
    5.7943    2.2387    6.1222 O   0  0  0  0  0  0  0  0  0  0  0  0
    6.9250    1.5614    6.6201 C   0  0  0  0  0  0  0  0  0  0  0  0
    7.6170    0.7300    5.5407 C   0  0  0  0  0  0  0  0  0  0  0  0
    6.2478   -2.1819    3.5495 C   0  0  0  0  0  0  0  0  0  0  0  0
    6.7050   -3.3221    2.9024 C   0  0  0  0  0  0  0  0  0  0  0  0
    9.3021   -2.9460   -1.8532 C   0  0  0  0  0  0  0  0  0  0  0  0
   10.0617   -1.8714   -2.3036 C   0  0  0  0  0  0  0  0  0  0  0  0
   10.7048    3.6498   -3.4890 H   0  0  0  0  0  0  0  0  0  0  0  0
   11.2739    2.2500   -4.4429 H   0  0  0  0  0  0  0  0  0  0  0  0
   11.9246    2.5350   -2.8080 H   0  0  0  0  0  0  0  0  0  0  0  0
    8.9925    1.8152   -3.4602 H   0  0  0  0  0  0  0  0  0  0  0  0
    9.6419    2.1030   -1.8251 H   0  0  0  0  0  0  0  0  0  0  0  0
    7.8072    0.6567   -1.8108 H   0  0  0  0  0  0  0  0  0  0  0  0
    6.4787   -1.2426   -0.9667 H   0  0  0  0  0  0  0  0  0  0  0  0
    5.4851   -3.3596   -2.1666 H   0  0  0  0  0  0  0  0  0  0  0  0
    4.4073   -5.5914   -1.0182 H   0  0  0  0  0  0  0  0  0  0  0  0
    6.3290   -6.5662    0.6517 H   0  0  0  0  0  0  0  0  0  0  0  0
   11.9240   -7.0616    1.8541 H   0  0  0  0  0  0  0  0  0  0  0  0
   14.2423   -6.9103    0.8300 H   0  0  0  0  0  0  0  0  0  0  0  0
   14.3960   -5.9206   -1.5416 H   0  0  0  0  0  0  0  0  0  0  0  0
   12.3596   -5.1526   -2.6703 H   0  0  0  0  0  0  0  0  0  0  0  0
    9.7900   -7.6942    2.2700 H   0  0  0  0  0  0  0  0  0  0  0  0
   10.0465   -2.9481    3.4424 H   0  0  0  0  0  0  0  0  0  0  0  0
    9.2601   -0.9398    4.5840 H   0  0  0  0  0  0  0  0  0  0  0  0
    4.6782   -0.2597    4.1894 H   0  0  0  0  0  0  0  0  0  0  0  0
    5.6139    1.1361    3.6059 H   0  0  0  0  0  0  0  0  0  0  0  0
    4.4974    0.6501    6.4314 H   0  0  0  0  0  0  0  0  0  0  0  0
    3.9899    1.9014    5.2540 H   0  0  0  0  0  0  0  0  0  0  0  0
    6.6342    0.8982    7.4611 H   0  0  0  0  0  0  0  0  0  0  0  0
    7.6208    2.3216    7.0055 H   0  0  0  0  0  0  0  0  0  0  0  0
    8.4133    0.1479    6.0244 H   0  0  0  0  0  0  0  0  0  0  0  0
    8.0942    1.4044    4.7995 H   0  0  0  0  0  0  0  0  0  0  0  0
    5.1743   -2.0005    3.5603 H   0  0  0  0  0  0  0  0  0  0  0  0
    5.9968   -3.9917    2.4119 H   0  0  0  0  0  0  0  0  0  0  0  0
    9.7365   -3.9558   -1.8501 H   0  0  0  0  0  0  0  0  0  0  0  0
   11.0773   -2.0297   -2.6712 H   0  0  0  0  0  0  0  0  0  0  0  0
  1  2  1  0
  1 41  1  0
  1 42  1  0
  1 43  1  0
  2  3  1  0
  2 44  1  0
  2 45  1  0
  3  4  1  0
  4  5  2  0
  4 40  1  0
  5  6  1  0
  5 46  1  0
  6  7  2  0
  6 47  1  0
  7  8  1  0
  7 39  1  0
  8  9  1  0
  8 12  1  0
  9 10  2  0
  9 48  1  0
 10 11  1  0
 10 49  1  0
 11 12  2  0
 11 50  1  0
 12 13  1  0
 13 14  1  1
 13 15  1  0
 13 26  1  0
 15 16  1  6
 15 17  1  0
 15 23  1  0
 17 18  2  0
 17 22  1  0
 18 19  1  0
 18 51  1  0
 19 20  2  0
 19 52  1  0
 20 21  1  0
 20 53  1  0
 21 22  2  0
 21 54  1  0
 23 24  1  0
 23 55  1  0
 24 25  2  0
 24 26  1  0
 26 27  1  0
 27 28  2  0
 27 38  1  0
 28 29  1  0
 28 56  1  0
 29 30  2  0
 29 57  1  0
 30 31  1  0
 30 37  1  0
 31 32  1  0
 31 36  1  0
 32 33  1  0
 32 58  1  0
 32 59  1  0
 33 34  1  0
 33 60  1  0
 33 61  1  0
 34 35  1  0
 35 36  1  0
 35 62  1  0
 35 63  1  0
 36 64  1  0
 36 65  1  0
 37 38  2  0
 37 66  1  0
 38 67  1  0
 39 40  2  0
 39 68  1  0
 40 69  1  0
M  END

