
     RDKit          3D

 36 37  0  0  0  0  0  0  0  0999 V2000
    0.8214   -0.0370   -0.6360 C   0  0  0  0  0  0  0  0  0  0  0  0
    2.2828    0.1016   -0.3943 C   0  0  0  0  0  0  0  0  0  0  0  0
    3.1745    1.1194   -0.5710 C   0  0  0  0  0  0  0  0  0  0  0  0
    4.4609    0.6254   -0.1397 C   0  0  0  0  0  0  0  0  0  0  0  0
    5.7591    1.3862   -0.1579 C   0  0  1  0  0  0  0  0  0  0  0  0
    6.1889    1.7792   -1.5759 C   0  0  0  0  0  0  0  0  0  0  0  0
    5.6060    2.5969    0.7087 N   0  0  0  0  0  0  0  0  0  0  0  0
    6.8016    3.3689    0.9613 C   0  0  0  0  0  0  0  0  0  0  0  0
    7.8044    2.8759    1.8088 C   0  0  0  0  0  0  0  0  0  0  0  0
    8.9594    3.6192    2.0562 C   0  0  0  0  0  0  0  0  0  0  0  0
    9.1265    4.8677    1.4477 C   0  0  0  0  0  0  0  0  0  0  0  0
    8.1310    5.3672    0.6104 C   0  0  0  0  0  0  0  0  0  0  0  0
    6.9578    4.6378    0.3608 C   0  0  0  0  0  0  0  0  0  0  0  0
    5.9150    5.3075   -0.5220 C   0  0  0  0  0  0  0  0  0  0  0  0
    6.1365    6.3629   -1.0654 O   0  0  0  0  0  0  0  0  0  0  0  0
    4.7480    4.6762   -0.6412 O   0  0  0  0  0  0  0  0  0  0  0  0
    4.2498   -0.6672    0.2716 C   0  0  0  0  0  0  0  0  0  0  0  0
    5.1279   -1.7424    0.8109 C   0  0  0  0  0  0  0  0  0  0  0  0
    2.9329   -0.9857    0.1154 O   0  0  0  0  0  0  0  0  0  0  0  0
    0.4169    0.8987   -1.0456 H   0  0  0  0  0  0  0  0  0  0  0  0
    0.2791   -0.2704    0.2959 H   0  0  0  0  0  0  0  0  0  0  0  0
    0.6071   -0.8493   -1.3510 H   0  0  0  0  0  0  0  0  0  0  0  0
    2.9489    2.1099   -0.9617 H   0  0  0  0  0  0  0  0  0  0  0  0
    6.5488    0.7358    0.2647 H   0  0  0  0  0  0  0  0  0  0  0  0
    5.4390    2.4247   -2.0560 H   0  0  0  0  0  0  0  0  0  0  0  0
    6.3090    0.8733   -2.1878 H   0  0  0  0  0  0  0  0  0  0  0  0
    7.1505    2.3150   -1.5695 H   0  0  0  0  0  0  0  0  0  0  0  0
    5.1928    2.3000    1.5930 H   0  0  0  0  0  0  0  0  0  0  0  0
    7.6713    1.8981    2.2803 H   0  0  0  0  0  0  0  0  0  0  0  0
    9.7289    3.2230    2.7238 H   0  0  0  0  0  0  0  0  0  0  0  0
   10.0300    5.4533    1.6336 H   0  0  0  0  0  0  0  0  0  0  0  0
    8.2251    6.3433    0.1309 H   0  0  0  0  0  0  0  0  0  0  0  0
    4.8016    3.8260   -0.1090 H   0  0  0  0  0  0  0  0  0  0  0  0
    6.1578   -1.3801    0.9336 H   0  0  0  0  0  0  0  0  0  0  0  0
    5.1537   -2.6157    0.1371 H   0  0  0  0  0  0  0  0  0  0  0  0
    4.7681   -2.0986    1.7908 H   0  0  0  0  0  0  0  0  0  0  0  0
  1  2  1  0
  1 20  1  0
  1 21  1  0
  1 22  1  0
  2  3  2  0
  2 19  1  0
  3  4  1  0
  3 23  1  0
  4  5  1  0
  4 17  2  0
  5  6  1  0
  5  7  1  0
  5 24  1  1
  6 25  1  0
  6 26  1  0
  6 27  1  0
  7  8  1  0
  7 28  1  0
  8  9  2  0
  8 13  1  0
  9 10  1  0
  9 29  1  0
 10 11  2  0
 10 30  1  0
 11 12  1  0
 11 31  1  0
 12 13  2  0
 12 32  1  0
 13 14  1  0
 14 15  2  0
 14 16  1  0
 16 33  1  0
 17 18  1  0
 17 19  1  0
 18 34  1  0
 18 35  1  0
 18 36  1  0
M  END

