
     RDKit          3D

 35 37  0  0  0  0  0  0  0  0999 V2000
    4.5603   -3.2509   -0.2125 C   0  0  0  0  0  0  0  0  0  0  0  0
    3.7152   -3.6284    0.9746 C   0  0  0  0  0  0  0  0  0  0  0  0
    4.2171   -4.4928    1.8640 N   0  0  0  0  0  0  0  0  0  0  0  0
    3.4894   -4.8370    2.9278 C   0  0  0  0  0  0  0  0  0  0  0  0
    2.2118   -4.3312    3.1788 C   0  0  0  0  0  0  0  0  0  0  0  0
    1.6687   -3.4239    2.2686 C   0  0  0  0  0  0  0  0  0  0  0  0
    2.4313   -3.0791    1.1556 C   0  0  0  0  0  0  0  0  0  0  0  0
    2.0182   -2.1255    0.2394 O   0  0  0  0  0  0  0  0  0  0  0  0
    0.8492   -2.2168   -0.4359 C   0  0  0  0  0  0  0  0  0  0  0  0
    0.0903   -3.2830   -0.3236 N   0  0  0  0  0  0  0  0  0  0  0  0
   -1.0590   -3.3711   -1.0135 C   0  0  0  0  0  0  0  0  0  0  0  0
   -1.4993   -2.3467   -1.8748 C   0  0  0  0  0  0  0  0  0  0  0  0
   -0.6830   -1.2151   -1.9868 C   0  0  0  0  0  0  0  0  0  0  0  0
    0.5148   -1.1180   -1.2694 C   0  0  0  0  0  0  0  0  0  0  0  0
    1.3645    0.0285   -1.3731 C   0  0  0  0  0  0  0  0  0  0  0  0
    2.0369    0.9700   -1.4745 N   0  0  0  0  0  0  0  0  0  0  0  0
   -2.8105   -2.4482   -2.6308 C   0  0  0  0  0  0  0  0  0  0  0  0
   -3.3341   -3.8851   -2.7250 C   0  0  0  0  0  0  0  0  0  0  0  0
   -3.2829   -4.5664   -1.3546 C   0  0  0  0  0  0  0  0  0  0  0  0
   -1.8418   -4.6542   -0.8444 C   0  0  0  0  0  0  0  0  0  0  0  0
    5.5239   -3.7713   -0.1439 H   0  0  0  0  0  0  0  0  0  0  0  0
    4.7332   -2.1634   -0.2525 H   0  0  0  0  0  0  0  0  0  0  0  0
    4.0684   -3.5292   -1.1593 H   0  0  0  0  0  0  0  0  0  0  0  0
    3.9472   -5.5518    3.6218 H   0  0  0  0  0  0  0  0  0  0  0  0
    1.6552   -4.6358    4.0679 H   0  0  0  0  0  0  0  0  0  0  0  0
    0.6781   -2.9918    2.4155 H   0  0  0  0  0  0  0  0  0  0  0  0
   -0.9746   -0.3907   -2.6425 H   0  0  0  0  0  0  0  0  0  0  0  0
   -2.6920   -2.0099   -3.6358 H   0  0  0  0  0  0  0  0  0  0  0  0
   -3.5640   -1.8213   -2.1179 H   0  0  0  0  0  0  0  0  0  0  0  0
   -2.7202   -4.4591   -3.4425 H   0  0  0  0  0  0  0  0  0  0  0  0
   -4.3613   -3.8821   -3.1233 H   0  0  0  0  0  0  0  0  0  0  0  0
   -3.7242   -5.5747   -1.4012 H   0  0  0  0  0  0  0  0  0  0  0  0
   -3.8973   -3.9902   -0.6394 H   0  0  0  0  0  0  0  0  0  0  0  0
   -1.2947   -5.4461   -1.3901 H   0  0  0  0  0  0  0  0  0  0  0  0
   -1.7980   -4.9491    0.2159 H   0  0  0  0  0  0  0  0  0  0  0  0
  1  2  1  0
  1 21  1  0
  1 22  1  0
  1 23  1  0
  2  3  2  0
  2  7  1  0
  3  4  1  0
  4  5  2  0
  4 24  1  0
  5  6  1  0
  5 25  1  0
  6  7  2  0
  6 26  1  0
  7  8  1  0
  8  9  1  0
  9 10  2  0
  9 14  1  0
 10 11  1  0
 11 12  2  0
 11 20  1  0
 12 13  1  0
 12 17  1  0
 13 14  2  0
 13 27  1  0
 14 15  1  0
 15 16  3  0
 17 18  1  0
 17 28  1  0
 17 29  1  0
 18 19  1  0
 18 30  1  0
 18 31  1  0
 19 20  1  0
 19 32  1  0
 19 33  1  0
 20 34  1  0
 20 35  1  0
M  END

