
     RDKit          3D

 73 78  0  0  0  0  0  0  0  0999 V2000
    3.5929    1.4567   -2.2432 C   0  0  0  0  0  0  0  0  0  0  0  0
    4.6213    1.0626   -1.1766 C   0  0  1  0  0  0  0  0  0  0  0  0
    5.9435    1.8160   -1.3548 C   0  0  0  0  0  0  0  0  0  0  0  0
    4.0150    1.2817    0.2248 C   0  0  0  0  0  0  0  0  0  0  0  0
    4.8664    0.8066    1.2999 N   0  0  0  0  0  0  0  0  0  0  0  0
    5.3981    1.5487    2.2861 C   0  0  0  0  0  0  0  0  0  0  0  0
    5.1487    2.8552    2.3748 N   0  0  0  0  0  0  0  0  0  0  0  0
    5.7115    3.5734    3.3737 C   0  0  0  0  0  0  0  0  0  0  0  0
    5.4540    5.0173    3.4264 C   0  0  0  0  0  0  0  0  0  0  0  0
    4.5962    5.6107    2.4677 C   0  0  0  0  0  0  0  0  0  0  0  0
    4.3248    6.9694    2.4943 C   0  0  0  0  0  0  0  0  0  0  0  0
    4.8816    7.8029    3.4852 C   0  0  0  0  0  0  0  0  0  0  0  0
    4.5291    9.2631    3.4273 C   0  0  0  0  0  0  0  0  0  0  0  0
    4.0562    9.7556    2.4134 O   0  0  0  0  0  0  0  0  0  0  0  0
    4.7622    9.9691    4.5875 N   0  0  0  0  0  0  0  0  0  0  0  0
    4.5586   11.3363    4.8509 C   0  0  0  0  0  0  0  0  0  0  0  0
    4.8441   11.7926    6.1527 C   0  0  0  0  0  0  0  0  0  0  0  0
    4.6703   13.1337    6.4884 C   0  0  0  0  0  0  0  0  0  0  0  0
    4.2104   14.0456    5.5326 C   0  0  0  0  0  0  0  0  0  0  0  0
    3.9282   13.5933    4.2406 C   0  0  0  0  0  0  0  0  0  0  0  0
    4.0955   12.2521    3.8875 C   0  0  0  0  0  0  0  0  0  0  0  0
    5.7535    7.2244    4.4281 C   0  0  0  0  0  0  0  0  0  0  0  0
    6.0330    5.8635    4.4037 C   0  0  0  0  0  0  0  0  0  0  0  0
    6.5312    2.9572    4.3582 C   0  0  0  0  0  0  0  0  0  0  0  0
    6.7486    1.6262    4.3003 N   0  0  0  0  0  0  0  0  0  0  0  0
    7.5208    0.7504    5.0968 C   0  0  0  0  0  0  0  0  0  0  0  0
    8.2225    1.1417    6.3025 C   0  0  0  0  0  0  0  0  0  0  0  0
    7.6797    2.0697    7.2509 C   0  0  0  0  0  0  0  0  0  0  0  0
    8.3772    2.4160    8.3907 C   0  0  0  0  0  0  0  0  0  0  0  0
    9.6502    1.8564    8.6865 C   0  0  0  0  0  0  0  0  0  0  0  0
   10.3227    2.2890    9.9232 C   0  0  0  0  0  0  0  0  0  0  0  0
    9.9260    3.2329   10.6077 O   0  0  0  0  0  0  0  0  0  0  0  0
   11.4637    1.5734   10.2923 N   0  0  0  0  0  0  0  0  0  0  0  0
   12.1045    1.8500   11.5408 C   0  0  1  0  0  0  0  0  0  0  0  0
   13.5517    1.4586   11.6834 C   0  0  0  0  0  0  0  0  0  0  0  0
   13.1662    2.9151   11.5964 C   0  0  0  0  0  0  0  0  0  0  0  0
   10.1865    0.9225    7.7488 C   0  0  0  0  0  0  0  0  0  0  0  0
    9.4953    0.5740    6.6037 C   0  0  0  0  0  0  0  0  0  0  0  0
    7.4248   -0.4628    4.4125 C   0  0  0  0  0  0  0  0  0  0  0  0
    6.6526   -0.3733    3.2776 N   0  0  0  0  0  0  0  0  0  0  0  0
    6.2461    0.8683    3.2272 C   0  0  0  0  0  0  0  0  0  0  0  0
    3.9856    1.2666   -3.2538 H   0  0  0  0  0  0  0  0  0  0  0  0
    3.3470    2.5301   -2.1786 H   0  0  0  0  0  0  0  0  0  0  0  0
    2.6542    0.8895   -2.1360 H   0  0  0  0  0  0  0  0  0  0  0  0
    4.8224   -0.0208   -1.2835 H   0  0  0  0  0  0  0  0  0  0  0  0
    5.7961    2.9042   -1.2522 H   0  0  0  0  0  0  0  0  0  0  0  0
    6.3681    1.6274   -2.3531 H   0  0  0  0  0  0  0  0  0  0  0  0
    6.6950    1.5074   -0.6116 H   0  0  0  0  0  0  0  0  0  0  0  0
    3.0462    0.7555    0.2904 H   0  0  0  0  0  0  0  0  0  0  0  0
    3.8288    2.3489    0.4056 H   0  0  0  0  0  0  0  0  0  0  0  0
    5.1267   -0.1783    1.3241 H   0  0  0  0  0  0  0  0  0  0  0  0
    4.1496    4.9739    1.7048 H   0  0  0  0  0  0  0  0  0  0  0  0
    3.6722    7.4278    1.7494 H   0  0  0  0  0  0  0  0  0  0  0  0
    5.0580    9.4277    5.3900 H   0  0  0  0  0  0  0  0  0  0  0  0
    5.2067   11.0863    6.9062 H   0  0  0  0  0  0  0  0  0  0  0  0
    4.8971   13.4668    7.5044 H   0  0  0  0  0  0  0  0  0  0  0  0
    4.0740   15.0975    5.7937 H   0  0  0  0  0  0  0  0  0  0  0  0
    3.5676   14.2957    3.4845 H   0  0  0  0  0  0  0  0  0  0  0  0
    3.8703   11.9000    2.8840 H   0  0  0  0  0  0  0  0  0  0  0  0
    6.2561    7.8372    5.1803 H   0  0  0  0  0  0  0  0  0  0  0  0
    6.7229    5.4719    5.1523 H   0  0  0  0  0  0  0  0  0  0  0  0
    7.0146    3.4967    5.1674 H   0  0  0  0  0  0  0  0  0  0  0  0
    6.6715    2.4695    7.1122 H   0  0  0  0  0  0  0  0  0  0  0  0
    7.9583    3.1181    9.1143 H   0  0  0  0  0  0  0  0  0  0  0  0
   11.5236    0.6150    9.9665 H   0  0  0  0  0  0  0  0  0  0  0  0
   11.4685    1.7626   12.4321 H   0  0  0  0  0  0  0  0  0  0  0  0
   14.0386    1.0110   10.8116 H   0  0  0  0  0  0  0  0  0  0  0  0
   13.8851    1.0553   12.6438 H   0  0  0  0  0  0  0  0  0  0  0  0
   13.3800    3.4421   10.6635 H   0  0  0  0  0  0  0  0  0  0  0  0
   13.2251    3.5314   12.4976 H   0  0  0  0  0  0  0  0  0  0  0  0
   11.1838    0.5032    7.9029 H   0  0  0  0  0  0  0  0  0  0  0  0
    9.9524   -0.1179    5.8909 H   0  0  0  0  0  0  0  0  0  0  0  0
    7.8742   -1.4053    4.7181 H   0  0  0  0  0  0  0  0  0  0  0  0
  1  2  1  0
  1 42  1  0
  1 43  1  0
  1 44  1  0
  2  3  1  0
  2  4  1  0
  2 45  1  6
  3 46  1  0
  3 47  1  0
  3 48  1  0
  4  5  1  0
  4 49  1  0
  4 50  1  0
  5  6  1  0
  5 51  1  0
  6  7  2  0
  6 41  1  0
  7  8  1  0
  8  9  1  0
  8 24  2  0
  9 10  2  0
  9 23  1  0
 10 11  1  0
 10 52  1  0
 11 12  2  0
 11 53  1  0
 12 13  1  0
 12 22  1  0
 13 14  2  0
 13 15  1  0
 15 16  1  0
 15 54  1  0
 16 17  2  0
 16 21  1  0
 17 18  1  0
 17 55  1  0
 18 19  2  0
 18 56  1  0
 19 20  1  0
 19 57  1  0
 20 21  2  0
 20 58  1  0
 21 59  1  0
 22 23  2  0
 22 60  1  0
 23 61  1  0
 24 25  1  0
 24 62  1  0
 25 26  1  0
 25 41  1  0
 26 27  1  0
 26 39  2  0
 27 28  2  0
 27 38  1  0
 28 29  1  0
 28 63  1  0
 29 30  2  0
 29 64  1  0
 30 31  1  0
 30 37  1  0
 31 32  2  0
 31 33  1  0
 33 34  1  0
 33 65  1  0
 34 35  1  0
 34 36  1  0
 34 66  1  1
 35 36  1  0
 35 67  1  0
 35 68  1  0
 36 69  1  0
 36 70  1  0
 37 38  2  0
 37 71  1  0
 38 72  1  0
 39 40  1  0
 39 73  1  0
 40 41  2  0
M  END

