
     RDKit          3D

 51 52  0  0  0  0  0  0  0  0999 V2000
    0.0949   -0.1525   -0.8930 C   0  0  0  0  0  0  0  0  0  0  0  0
    1.4924   -0.2405   -0.2637 C   0  0  1  0  0  0  0  0  0  0  0  0
    2.2143   -1.5623   -0.6029 C   0  0  0  0  0  0  0  0  0  0  0  0
    2.7288   -1.5888   -2.0474 C   0  0  2  0  0  0  0  0  0  0  0  0
    3.4982   -2.8650   -2.3702 C   0  0  0  0  0  0  0  0  0  0  0  0
    3.8670   -3.6683   -1.5571 O   0  0  0  0  0  0  0  0  0  0  0  0
    3.7849   -3.0369   -3.6828 O   0  0  0  0  0  0  0  0  0  0  0  0
    3.6043   -0.3395   -2.3046 C   0  0  0  0  0  0  0  0  0  0  0  0
    2.8605    0.8788   -2.0300 N   0  0  0  0  0  0  0  0  0  0  0  0
    2.2450    1.4857   -3.1250 C   0  0  0  0  0  0  0  0  0  0  0  0
    2.3083    1.0004   -4.2486 O   0  0  0  0  0  0  0  0  0  0  0  0
    1.5779    2.6609   -2.8611 N   0  0  0  0  0  0  0  0  0  0  0  0
    0.9669    3.4399   -3.9235 C   0  0  0  0  0  0  0  0  0  0  0  0
   -0.3801    4.0321   -3.5045 C   0  0  0  0  0  0  0  0  0  0  0  0
   -1.0408    4.8445   -4.6100 C   0  0  0  0  0  0  0  0  0  0  0  0
   -1.2813    4.0026   -5.7139 O   0  0  0  0  0  0  0  0  0  0  0  0
   -1.7669    4.6339   -6.8944 C   0  0  1  0  0  0  0  0  0  0  0  0
   -1.5026    3.6767   -8.0613 C   0  0  0  0  0  0  0  0  0  0  0  0
   -2.4207    2.4549   -7.9853 C   0  0  0  0  0  0  0  0  0  0  0  0
   -3.7844    2.8337   -7.9350 O   0  0  0  0  0  0  0  0  0  0  0  0
   -4.0838    3.6324   -6.8078 C   0  0  0  0  0  0  0  0  0  0  0  0
   -3.2749    4.9318   -6.8068 C   0  0  0  0  0  0  0  0  0  0  0  0
    2.3851    0.9618   -0.6497 C   0  0  0  0  0  0  0  0  0  0  0  0
   -0.5288   -1.0034   -0.5753 H   0  0  0  0  0  0  0  0  0  0  0  0
    0.1285   -0.1606   -1.9939 H   0  0  0  0  0  0  0  0  0  0  0  0
   -0.4215    0.7723   -0.5893 H   0  0  0  0  0  0  0  0  0  0  0  0
    1.3680   -0.2015    0.8331 H   0  0  0  0  0  0  0  0  0  0  0  0
    1.5484   -2.4205   -0.4197 H   0  0  0  0  0  0  0  0  0  0  0  0
    3.0785   -1.7027    0.0676 H   0  0  0  0  0  0  0  0  0  0  0  0
    1.8826   -1.5304   -2.7553 H   0  0  0  0  0  0  0  0  0  0  0  0
    3.3935   -2.3270   -4.2141 H   0  0  0  0  0  0  0  0  0  0  0  0
    3.9555   -0.2976   -3.3417 H   0  0  0  0  0  0  0  0  0  0  0  0
    4.4865   -0.3748   -1.6406 H   0  0  0  0  0  0  0  0  0  0  0  0
    1.8015    3.1491   -2.0029 H   0  0  0  0  0  0  0  0  0  0  0  0
    0.8360    2.7708   -4.7825 H   0  0  0  0  0  0  0  0  0  0  0  0
    1.6434    4.2525   -4.2561 H   0  0  0  0  0  0  0  0  0  0  0  0
   -0.2539    4.6899   -2.6251 H   0  0  0  0  0  0  0  0  0  0  0  0
   -1.0563    3.2163   -3.1986 H   0  0  0  0  0  0  0  0  0  0  0  0
   -0.3836    5.6887   -4.9116 H   0  0  0  0  0  0  0  0  0  0  0  0
   -1.9796    5.2929   -4.2286 H   0  0  0  0  0  0  0  0  0  0  0  0
   -1.2079    5.5784   -7.0512 H   0  0  0  0  0  0  0  0  0  0  0  0
   -0.4458    3.3653   -8.0507 H   0  0  0  0  0  0  0  0  0  0  0  0
   -1.6895    4.2118   -9.0074 H   0  0  0  0  0  0  0  0  0  0  0  0
   -2.1573    1.8478   -7.0964 H   0  0  0  0  0  0  0  0  0  0  0  0
   -2.3033    1.8195   -8.8764 H   0  0  0  0  0  0  0  0  0  0  0  0
   -3.8804    3.0701   -5.8735 H   0  0  0  0  0  0  0  0  0  0  0  0
   -5.1640    3.8418   -6.8467 H   0  0  0  0  0  0  0  0  0  0  0  0
   -3.5087    5.5269   -5.9082 H   0  0  0  0  0  0  0  0  0  0  0  0
   -3.5642    5.5418   -7.6793 H   0  0  0  0  0  0  0  0  0  0  0  0
    1.8374    1.8995   -0.4860 H   0  0  0  0  0  0  0  0  0  0  0  0
    3.2671    0.9887    0.0154 H   0  0  0  0  0  0  0  0  0  0  0  0
  1  2  1  0
  1 24  1  0
  1 25  1  0
  1 26  1  0
  2  3  1  0
  2 23  1  0
  2 27  1  1
  3  4  1  0
  3 28  1  0
  3 29  1  0
  4  5  1  0
  4  8  1  0
  4 30  1  6
  5  6  2  0
  5  7  1  0
  7 31  1  0
  8  9  1  0
  8 32  1  0
  8 33  1  0
  9 10  1  0
  9 23  1  0
 10 11  2  0
 10 12  1  0
 12 13  1  0
 12 34  1  0
 13 14  1  0
 13 35  1  0
 13 36  1  0
 14 15  1  0
 14 37  1  0
 14 38  1  0
 15 16  1  0
 15 39  1  0
 15 40  1  0
 16 17  1  0
 17 18  1  0
 17 22  1  0
 17 41  1  6
 18 19  1  0
 18 42  1  0
 18 43  1  0
 19 20  1  0
 19 44  1  0
 19 45  1  0
 20 21  1  0
 21 22  1  0
 21 46  1  0
 21 47  1  0
 22 48  1  0
 22 49  1  0
 23 50  1  0
 23 51  1  0
M  END

