
     RDKit          3D

 52 52  0  0  0  0  0  0  0  0999 V2000
    0.7396   -0.4406   -0.5239 O   0  0  0  0  0  0  0  0  0  0  0  0
    2.1493   -0.4411   -0.4662 C   0  0  0  0  0  0  0  0  0  0  0  0
    2.5729   -1.6952    0.2787 C   0  0  0  0  0  0  0  0  0  0  0  0
    3.9769   -1.7175    0.3447 O   0  0  0  0  0  0  0  0  0  0  0  0
    4.5104   -2.8301    1.0144 C   0  0  0  0  0  0  0  0  0  0  0  0
    6.0247   -2.7057    0.9980 C   0  0  0  0  0  0  0  0  0  0  0  0
    6.5626   -3.8204    1.6654 O   0  0  0  0  0  0  0  0  0  0  0  0
    7.9648   -3.8385    1.7292 C   0  0  0  0  0  0  0  0  0  0  0  0
    8.3837   -5.0969    2.4704 C   0  0  0  0  0  0  0  0  0  0  0  0
    9.7881   -5.1171    2.5403 O   0  0  0  0  0  0  0  0  0  0  0  0
   10.3195   -6.2362    3.1975 C   0  0  0  0  0  0  0  0  0  0  0  0
   11.8384   -6.1502    3.1900 C   0  0  0  0  0  0  0  0  0  0  0  0
   12.3594   -5.0199    3.8553 O   0  0  0  0  0  0  0  0  0  0  0  0
   12.3302   -5.0450    5.2677 C   0  0  0  0  0  0  0  0  0  0  0  0
   13.0672   -3.7920    5.7375 C   0  0  1  0  0  0  0  0  0  0  0  0
   14.3853   -3.7825    5.2457 O   0  0  0  0  0  0  0  0  0  0  0  0
   12.3007   -2.5318    5.3344 C   0  0  0  0  0  0  0  0  0  0  0  0
   12.9510   -1.4127    5.9173 O   0  0  0  0  0  0  0  0  0  0  0  0
   12.5462   -0.1501    5.6769 C   0  0  0  0  0  0  0  0  0  0  0  0
   11.4656    0.1590    4.7983 C   0  0  0  0  0  0  0  0  0  0  0  0
   11.1212    1.5385    4.6273 C   0  0  0  0  0  0  0  0  0  0  0  0
   11.8578    2.5352    5.3214 C   0  0  0  0  0  0  0  0  0  0  0  0
   12.9302    2.2185    6.1910 C   0  0  0  0  0  0  0  0  0  0  0  0
   13.2885    0.8457    6.3788 C   0  0  0  0  0  0  0  0  0  0  0  0
    0.4518    0.3527   -0.9905 H   0  0  0  0  0  0  0  0  0  0  0  0
    2.5519    0.4416    0.0700 H   0  0  0  0  0  0  0  0  0  0  0  0
    2.6148   -0.4533   -1.4721 H   0  0  0  0  0  0  0  0  0  0  0  0
    2.1788   -2.5874   -0.2500 H   0  0  0  0  0  0  0  0  0  0  0  0
    2.1203   -1.6916    1.2915 H   0  0  0  0  0  0  0  0  0  0  0  0
    4.2128   -3.7800    0.5245 H   0  0  0  0  0  0  0  0  0  0  0  0
    4.1551   -2.8810    2.0641 H   0  0  0  0  0  0  0  0  0  0  0  0
    6.3230   -1.7577    1.4904 H   0  0  0  0  0  0  0  0  0  0  0  0
    6.3798   -2.6534   -0.0514 H   0  0  0  0  0  0  0  0  0  0  0  0
    8.3587   -2.9481    2.2611 H   0  0  0  0  0  0  0  0  0  0  0  0
    8.4181   -3.8382    0.7168 H   0  0  0  0  0  0  0  0  0  0  0  0
    7.9922   -5.9871    1.9365 H   0  0  0  0  0  0  0  0  0  0  0  0
    7.9277   -5.0986    3.4818 H   0  0  0  0  0  0  0  0  0  0  0  0
   10.0253   -7.1804    2.6904 H   0  0  0  0  0  0  0  0  0  0  0  0
    9.9299   -6.3056    4.2353 H   0  0  0  0  0  0  0  0  0  0  0  0
   12.1811   -6.0724    2.1465 H   0  0  0  0  0  0  0  0  0  0  0  0
   12.2517   -7.0848    3.6207 H   0  0  0  0  0  0  0  0  0  0  0  0
   12.8566   -5.9417    5.6505 H   0  0  0  0  0  0  0  0  0  0  0  0
   11.2956   -5.0622    5.6619 H   0  0  0  0  0  0  0  0  0  0  0  0
   13.1362   -3.8134    6.8385 H   0  0  0  0  0  0  0  0  0  0  0  0
   14.3220   -3.9996    4.3027 H   0  0  0  0  0  0  0  0  0  0  0  0
   11.2556   -2.5744    5.6906 H   0  0  0  0  0  0  0  0  0  0  0  0
   12.2818   -2.4381    4.2362 H   0  0  0  0  0  0  0  0  0  0  0  0
   10.9243   -0.6201    4.2654 H   0  0  0  0  0  0  0  0  0  0  0  0
   10.3030    1.8219    3.9643 H   0  0  0  0  0  0  0  0  0  0  0  0
   11.5863    3.5848    5.1759 H   0  0  0  0  0  0  0  0  0  0  0  0
   13.4735    3.0099    6.7081 H   0  0  0  0  0  0  0  0  0  0  0  0
   14.1010    0.5285    7.0317 H   0  0  0  0  0  0  0  0  0  0  0  0
  1  2  1  0
  1 25  1  0
  2  3  1  0
  2 26  1  0
  2 27  1  0
  3  4  1  0
  3 28  1  0
  3 29  1  0
  4  5  1  0
  5  6  1  0
  5 30  1  0
  5 31  1  0
  6  7  1  0
  6 32  1  0
  6 33  1  0
  7  8  1  0
  8  9  1  0
  8 34  1  0
  8 35  1  0
  9 10  1  0
  9 36  1  0
  9 37  1  0
 10 11  1  0
 11 12  1  0
 11 38  1  0
 11 39  1  0
 12 13  1  0
 12 40  1  0
 12 41  1  0
 13 14  1  0
 14 15  1  0
 14 42  1  0
 14 43  1  0
 15 16  1  0
 15 17  1  0
 15 44  1  1
 16 45  1  0
 17 18  1  0
 17 46  1  0
 17 47  1  0
 18 19  1  0
 19 20  2  0
 19 24  1  0
 20 21  1  0
 20 48  1  0
 21 22  2  0
 21 49  1  0
 22 23  1  0
 22 50  1  0
 23 24  2  0
 23 51  1  0
 24 52  1  0
M  END

