
     RDKit          3D

 71 78  0  0  0  0  0  0  0  0999 V2000
   -0.6960    0.7057    1.8064 C   0  0  0  0  0  0  0  0  0  0  0  0
   -0.3574    1.5800    0.7690 C   0  0  0  0  0  0  0  0  0  0  0  0
   -0.3559    1.2156   -0.5153 N   0  0  0  0  0  0  0  0  0  0  0  0
   -0.6876   -0.0400   -0.8120 C   0  0  0  0  0  0  0  0  0  0  0  0
   -1.0354   -1.0175    0.1428 C   0  0  0  0  0  0  0  0  0  0  0  0
   -1.3876   -2.4021   -0.2608 C   0  0  0  0  0  0  0  0  0  0  0  0
   -0.7272   -3.0407   -1.3270 C   0  0  0  0  0  0  0  0  0  0  0  0
   -1.0612   -4.3412   -1.7070 C   0  0  0  0  0  0  0  0  0  0  0  0
   -2.0666   -5.0564   -1.0358 C   0  0  0  0  0  0  0  0  0  0  0  0
   -2.4253   -6.4522   -1.4445 C   0  0  0  0  0  0  0  0  0  0  0  0
   -1.6984   -7.5517   -0.9293 C   0  0  0  0  0  0  0  0  0  0  0  0
   -0.6122   -7.3739   -0.0091 C   0  0  0  0  0  0  0  0  0  0  0  0
    0.0872   -8.4443    0.4891 C   0  0  0  0  0  0  0  0  0  0  0  0
   -0.2572   -9.7701    0.1005 C   0  0  0  0  0  0  0  0  0  0  0  0
   -1.2905   -9.9880   -0.7756 C   0  0  0  0  0  0  0  0  0  0  0  0
   -2.0486   -8.9005   -1.3256 C   0  0  0  0  0  0  0  0  0  0  0  0
   -3.1162   -9.1191   -2.2277 C   0  0  0  0  0  0  0  0  0  0  0  0
   -3.4772  -10.5139   -2.6373 C   0  0  0  0  0  0  0  0  0  0  0  0
   -4.4731  -11.2338   -1.9560 C   0  0  0  0  0  0  0  0  0  0  0  0
   -4.8080  -12.5340   -2.3366 C   0  0  0  0  0  0  0  0  0  0  0  0
   -4.1612  -13.1666   -3.4144 C   0  0  0  0  0  0  0  0  0  0  0  0
   -4.5152  -14.5508   -3.8177 C   0  0  0  0  0  0  0  0  0  0  0  0
   -5.8368  -15.0271   -3.7758 C   0  0  0  0  0  0  0  0  0  0  0  0
   -6.1087  -16.3367   -4.1687 C   0  0  0  0  0  0  0  0  0  0  0  0
   -5.0481  -17.1399   -4.5992 C   0  0  0  0  0  0  0  0  0  0  0  0
   -3.7842  -16.7116   -4.6408 N   0  0  0  0  0  0  0  0  0  0  0  0
   -3.5325  -15.4605   -4.2590 C   0  0  0  0  0  0  0  0  0  0  0  0
   -3.1653  -12.4423   -4.0956 C   0  0  0  0  0  0  0  0  0  0  0  0
   -2.8302  -11.1425   -3.7138 C   0  0  0  0  0  0  0  0  0  0  0  0
   -3.8424   -8.0188   -2.7426 C   0  0  0  0  0  0  0  0  0  0  0  0
   -4.9220   -8.1980   -3.6659 C   0  0  0  0  0  0  0  0  0  0  0  0
   -5.6384   -7.1390   -4.1878 C   0  0  0  0  0  0  0  0  0  0  0  0
   -6.7489   -7.3587   -5.1472 C   0  0  0  0  0  0  0  0  0  0  0  0
   -7.6003   -8.4746   -5.0648 C   0  0  0  0  0  0  0  0  0  0  0  0
   -8.6209   -8.6322   -6.0005 C   0  0  0  0  0  0  0  0  0  0  0  0
   -8.7711   -7.6629   -6.9974 C   0  0  0  0  0  0  0  0  0  0  0  0
   -7.9744   -6.5966   -7.0976 N   0  0  0  0  0  0  0  0  0  0  0  0
   -6.9986   -6.4554   -6.2012 C   0  0  0  0  0  0  0  0  0  0  0  0
   -5.2773   -5.8107   -3.7840 C   0  0  0  0  0  0  0  0  0  0  0  0
   -4.2509   -5.5919   -2.9043 C   0  0  0  0  0  0  0  0  0  0  0  0
   -3.4901   -6.6724   -2.3466 C   0  0  0  0  0  0  0  0  0  0  0  0
   -2.7267   -4.4224    0.0298 C   0  0  0  0  0  0  0  0  0  0  0  0
   -2.3946   -3.1214    0.4091 C   0  0  0  0  0  0  0  0  0  0  0  0
   -1.0362   -0.6080    1.4873 C   0  0  0  0  0  0  0  0  0  0  0  0
   -0.6817    1.0464    2.8444 H   0  0  0  0  0  0  0  0  0  0  0  0
   -0.0758    2.6171    0.9868 H   0  0  0  0  0  0  0  0  0  0  0  0
   -0.7019   -0.2971   -1.8778 H   0  0  0  0  0  0  0  0  0  0  0  0
    0.0766   -2.5218   -1.8542 H   0  0  0  0  0  0  0  0  0  0  0  0
   -0.5277   -4.8154   -2.5347 H   0  0  0  0  0  0  0  0  0  0  0  0
   -0.3453   -6.3610    0.2946 H   0  0  0  0  0  0  0  0  0  0  0  0
    0.9110   -8.2813    1.1886 H   0  0  0  0  0  0  0  0  0  0  0  0
    0.3043  -10.6163    0.5044 H   0  0  0  0  0  0  0  0  0  0  0  0
   -1.5504  -11.0063   -1.0670 H   0  0  0  0  0  0  0  0  0  0  0  0
   -4.9840  -10.7703   -1.1082 H   0  0  0  0  0  0  0  0  0  0  0  0
   -5.5681  -13.0759   -1.7685 H   0  0  0  0  0  0  0  0  0  0  0  0
   -6.6484  -14.3672   -3.4589 H   0  0  0  0  0  0  0  0  0  0  0  0
   -7.1285  -16.7283   -4.1531 H   0  0  0  0  0  0  0  0  0  0  0  0
   -5.2292  -18.1714   -4.9238 H   0  0  0  0  0  0  0  0  0  0  0  0
   -2.4810  -15.1506   -4.2808 H   0  0  0  0  0  0  0  0  0  0  0  0
   -2.6603  -12.8921   -4.9535 H   0  0  0  0  0  0  0  0  0  0  0  0
   -2.0585  -10.5998   -4.2655 H   0  0  0  0  0  0  0  0  0  0  0  0
   -5.1592   -9.2137   -3.9831 H   0  0  0  0  0  0  0  0  0  0  0  0
   -7.4738   -9.2014   -4.2586 H   0  0  0  0  0  0  0  0  0  0  0  0
   -9.2997   -9.4871   -5.9533 H   0  0  0  0  0  0  0  0  0  0  0  0
   -9.5698   -7.7526   -7.7433 H   0  0  0  0  0  0  0  0  0  0  0  0
   -6.3509   -5.5804   -6.3295 H   0  0  0  0  0  0  0  0  0  0  0  0
   -5.8457   -4.9608   -4.1673 H   0  0  0  0  0  0  0  0  0  0  0  0
   -4.0038   -4.5713   -2.6093 H   0  0  0  0  0  0  0  0  0  0  0  0
   -3.5175   -4.9557    0.5636 H   0  0  0  0  0  0  0  0  0  0  0  0
   -2.9448   -2.6486    1.2263 H   0  0  0  0  0  0  0  0  0  0  0  0
   -1.2802   -1.3215    2.2784 H   0  0  0  0  0  0  0  0  0  0  0  0
  1  2  2  0
  1 44  1  0
  1 45  1  0
  2  3  1  0
  2 46  1  0
  3  4  2  0
  4  5  1  0
  4 47  1  0
  5  6  1  0
  5 44  2  0
  6  7  2  0
  6 43  1  0
  7  8  1  0
  7 48  1  0
  8  9  2  0
  8 49  1  0
  9 10  1  0
  9 42  1  0
 10 11  1  0
 10 41  2  0
 11 12  2  0
 11 16  1  0
 12 13  1  0
 12 50  1  0
 13 14  2  0
 13 51  1  0
 14 15  1  0
 14 52  1  0
 15 16  2  0
 15 53  1  0
 16 17  1  0
 17 18  1  0
 17 30  2  0
 18 19  2  0
 18 29  1  0
 19 20  1  0
 19 54  1  0
 20 21  2  0
 20 55  1  0
 21 22  1  0
 21 28  1  0
 22 23  2  0
 22 27  1  0
 23 24  1  0
 23 56  1  0
 24 25  2  0
 24 57  1  0
 25 26  1  0
 25 58  1  0
 26 27  2  0
 27 59  1  0
 28 29  2  0
 28 60  1  0
 29 61  1  0
 30 31  1  0
 30 41  1  0
 31 32  2  0
 31 62  1  0
 32 33  1  0
 32 39  1  0
 33 34  2  0
 33 38  1  0
 34 35  1  0
 34 63  1  0
 35 36  2  0
 35 64  1  0
 36 37  1  0
 36 65  1  0
 37 38  2  0
 38 66  1  0
 39 40  2  0
 39 67  1  0
 40 41  1  0
 40 68  1  0
 42 43  2  0
 42 69  1  0
 43 70  1  0
 44 71  1  0
M  END

