
     RDKit          3D

 37 38  0  0  0  0  0  0  0  0999 V2000
    1.4078   -0.0191    1.7503 C   0  0  0  0  0  0  0  0  0  0  0  0
    2.6232   -0.0285    0.8466 C   0  0  0  0  0  0  0  0  0  0  0  0
    3.2476    1.2247    0.6517 C   0  0  0  0  0  0  0  0  0  0  0  0
    4.3803    1.3463   -0.1639 C   0  0  0  0  0  0  0  0  0  0  0  0
    4.9420    0.2221   -0.7338 C   0  0  0  0  0  0  0  0  0  0  0  0
    4.3906   -1.0828   -0.5237 C   0  0  0  0  0  0  0  0  0  0  0  0
    5.1289   -2.1963   -1.0052 C   0  0  0  0  0  0  0  0  0  0  0  0
    4.7915   -3.4744   -0.7144 N   0  0  0  0  0  0  0  0  0  0  0  0
    6.6060   -2.0421   -1.9729 S   0  0  0  0  0  0  0  0  0  0  0  0
    3.1397   -1.1836    0.2333 C   0  0  0  0  0  0  0  0  0  0  0  0
    2.4777   -2.4613    0.3245 N   0  0  0  0  0  0  0  0  0  0  0  0
    2.4173   -3.1812    1.6107 C   0  0  0  0  0  0  0  0  0  0  0  0
    1.2476   -4.1698    1.4535 C   0  0  0  0  0  0  0  0  0  0  0  0
    1.0479   -4.2695   -0.0648 C   0  0  0  0  0  0  0  0  0  0  0  0
    1.3477   -2.8466   -0.5878 C   0  0  1  0  0  0  0  0  0  0  0  0
    0.0956   -1.9519   -0.4732 C   0  0  0  0  0  0  0  0  0  0  0  0
    1.7933   -2.8455   -2.0578 C   0  0  0  0  0  0  0  0  0  0  0  0
    1.6734    0.4294    2.7220 H   0  0  0  0  0  0  0  0  0  0  0  0
    0.9879   -1.0091    1.9447 H   0  0  0  0  0  0  0  0  0  0  0  0
    0.6047    0.6043    1.3241 H   0  0  0  0  0  0  0  0  0  0  0  0
    2.8249    2.1079    1.1372 H   0  0  0  0  0  0  0  0  0  0  0  0
    4.8336    2.3267   -0.3321 H   0  0  0  0  0  0  0  0  0  0  0  0
    5.8492    0.3283   -1.3323 H   0  0  0  0  0  0  0  0  0  0  0  0
    3.8462   -3.5529   -0.3180 H   0  0  0  0  0  0  0  0  0  0  0  0
    5.2160   -4.2466   -1.2128 H   0  0  0  0  0  0  0  0  0  0  0  0
    2.2731   -2.5084    2.4723 H   0  0  0  0  0  0  0  0  0  0  0  0
    3.3739   -3.7090    1.7969 H   0  0  0  0  0  0  0  0  0  0  0  0
    0.3400   -3.7682    1.9314 H   0  0  0  0  0  0  0  0  0  0  0  0
    1.4536   -5.1431    1.9235 H   0  0  0  0  0  0  0  0  0  0  0  0
    0.0421   -4.6148   -0.3484 H   0  0  0  0  0  0  0  0  0  0  0  0
    1.7709   -4.9816   -0.4998 H   0  0  0  0  0  0  0  0  0  0  0  0
   -0.3510   -1.9796    0.5303 H   0  0  0  0  0  0  0  0  0  0  0  0
   -0.6701   -2.2909   -1.1891 H   0  0  0  0  0  0  0  0  0  0  0  0
    0.3373   -0.9066   -0.7136 H   0  0  0  0  0  0  0  0  0  0  0  0
    2.6502   -3.5121   -2.2287 H   0  0  0  0  0  0  0  0  0  0  0  0
    2.0807   -1.8335   -2.3820 H   0  0  0  0  0  0  0  0  0  0  0  0
    0.9668   -3.1827   -2.7026 H   0  0  0  0  0  0  0  0  0  0  0  0
  1  2  1  0
  1 18  1  0
  1 19  1  0
  1 20  1  0
  2  3  2  0
  2 10  1  0
  3  4  1  0
  3 21  1  0
  4  5  2  0
  4 22  1  0
  5  6  1  0
  5 23  1  0
  6  7  1  0
  6 10  2  0
  7  8  1  0
  7  9  2  0
  8 24  1  0
  8 25  1  0
 10 11  1  0
 11 12  1  0
 11 15  1  0
 12 13  1  0
 12 26  1  0
 12 27  1  0
 13 14  1  0
 13 28  1  0
 13 29  1  0
 14 15  1  0
 14 30  1  0
 14 31  1  0
 15 16  1  1
 15 17  1  0
 16 32  1  0
 16 33  1  0
 16 34  1  0
 17 35  1  0
 17 36  1  0
 17 37  1  0
M  END

