
     RDKit          3D

 44 47  0  0  0  0  0  0  0  0999 V2000
    1.0912   -0.4745   -0.7589 C   0  0  0  0  0  0  0  0  0  0  0  0
    2.5619   -0.2490   -0.4918 C   0  0  0  0  0  0  0  0  0  0  0  0
    3.2284    0.9920   -1.0302 C   0  0  0  0  0  0  0  0  0  0  0  0
    2.7906    2.2910   -0.3098 C   0  0  0  0  0  0  0  0  0  0  0  0
    3.4464    3.5344   -0.8715 C   0  0  0  0  0  0  0  0  0  0  0  0
    4.6341    4.0294   -0.3158 C   0  0  0  0  0  0  0  0  0  0  0  0
    5.2957    5.1589   -0.8387 C   0  0  0  0  0  0  0  0  0  0  0  0
    4.7240    5.7657   -1.9414 C   0  0  0  0  0  0  0  0  0  0  0  0
    3.5404    5.2841   -2.5067 C   0  0  0  0  0  0  0  0  0  0  0  0
    2.8815    4.1805   -1.9976 C   0  0  0  0  0  0  0  0  0  0  0  0
    3.1810    6.0886   -3.5538 O   0  0  0  0  0  0  0  0  0  0  0  0
    4.2690    6.9874   -3.7517 C   0  0  0  0  0  0  0  0  0  0  0  0
    5.1297    6.8821   -2.6228 O   0  0  0  0  0  0  0  0  0  0  0  0
    3.2905   -1.0601    0.1936 N   0  0  0  0  0  0  0  0  0  0  0  0
    2.7421   -2.1720    0.7116 N   0  0  0  0  0  0  0  0  0  0  0  0
    3.4763   -3.0881    1.4452 C   0  0  0  0  0  0  0  0  0  0  0  0
    4.8742   -2.8896    1.6830 C   0  0  0  0  0  0  0  0  0  0  0  0
    5.5384   -3.8371    2.4179 C   0  0  0  0  0  0  0  0  0  0  0  0
    4.8458   -4.9767    2.9214 C   0  0  0  0  0  0  0  0  0  0  0  0
    5.4667   -5.9957    3.6888 C   0  0  0  0  0  0  0  0  0  0  0  0
    4.7365   -7.0751    4.1476 C   0  0  0  0  0  0  0  0  0  0  0  0
    3.3539   -7.1704    3.8520 C   0  0  0  0  0  0  0  0  0  0  0  0
    2.7217   -6.1944    3.1072 C   0  0  0  0  0  0  0  0  0  0  0  0
    3.4463   -5.0711    2.6208 C   0  0  0  0  0  0  0  0  0  0  0  0
    2.7972   -4.1258    1.8912 N   0  0  0  0  0  0  0  0  0  0  0  0
    0.6725    0.3125   -1.4006 H   0  0  0  0  0  0  0  0  0  0  0  0
    0.5023   -0.4907    0.1763 H   0  0  0  0  0  0  0  0  0  0  0  0
    0.9213   -1.4420   -1.2656 H   0  0  0  0  0  0  0  0  0  0  0  0
    3.0069    1.0925   -2.1086 H   0  0  0  0  0  0  0  0  0  0  0  0
    4.3169    0.8707   -0.9303 H   0  0  0  0  0  0  0  0  0  0  0  0
    3.0338    2.1927    0.7604 H   0  0  0  0  0  0  0  0  0  0  0  0
    1.6938    2.3952   -0.3738 H   0  0  0  0  0  0  0  0  0  0  0  0
    5.0624    3.5258    0.5548 H   0  0  0  0  0  0  0  0  0  0  0  0
    6.2144    5.5436   -0.3931 H   0  0  0  0  0  0  0  0  0  0  0  0
    1.9516    3.8296   -2.4502 H   0  0  0  0  0  0  0  0  0  0  0  0
    3.8888    8.0187   -3.8356 H   0  0  0  0  0  0  0  0  0  0  0  0
    4.8215    6.7065   -4.6710 H   0  0  0  0  0  0  0  0  0  0  0  0
    1.7556   -2.4052    0.6012 H   0  0  0  0  0  0  0  0  0  0  0  0
    5.3635   -2.0046    1.2793 H   0  0  0  0  0  0  0  0  0  0  0  0
    6.6070   -3.7263    2.6244 H   0  0  0  0  0  0  0  0  0  0  0  0
    6.5344   -5.9123    3.9117 H   0  0  0  0  0  0  0  0  0  0  0  0
    5.2210   -7.8564    4.7382 H   0  0  0  0  0  0  0  0  0  0  0  0
    2.7835   -8.0279    4.2192 H   0  0  0  0  0  0  0  0  0  0  0  0
    1.6574   -6.2518    2.8700 H   0  0  0  0  0  0  0  0  0  0  0  0
  1  2  1  0
  1 26  1  0
  1 27  1  0
  1 28  1  0
  2  3  1  0
  2 14  2  0
  3  4  1  0
  3 29  1  0
  3 30  1  0
  4  5  1  0
  4 31  1  0
  4 32  1  0
  5  6  2  0
  5 10  1  0
  6  7  1  0
  6 33  1  0
  7  8  2  0
  7 34  1  0
  8  9  1  0
  8 13  1  0
  9 10  2  0
  9 11  1  0
 10 35  1  0
 11 12  1  0
 12 13  1  0
 12 36  1  0
 12 37  1  0
 14 15  1  0
 15 16  1  0
 15 38  1  0
 16 17  2  0
 16 25  1  0
 17 18  1  0
 17 39  1  0
 18 19  2  0
 18 40  1  0
 19 20  1  0
 19 24  1  0
 20 21  2  0
 20 41  1  0
 21 22  1  0
 21 42  1  0
 22 23  2  0
 22 43  1  0
 23 24  1  0
 23 44  1  0
 24 25  2  0
M  END

