
     RDKit          3D

 49 50  0  0  0  0  0  0  0  0999 V2000
    2.7309   -0.4062    1.7426 C   0  0  0  0  0  0  0  0  0  0  0  0
    1.8023   -0.3096    0.5213 C   0  0  0  0  0  0  0  0  0  0  0  0
    2.3705   -0.9566   -0.7225 C   0  0  0  0  0  0  0  0  0  0  0  0
    2.1666   -2.3239   -0.9941 C   0  0  0  0  0  0  0  0  0  0  0  0
    2.7183   -2.9381   -2.1109 C   0  0  0  0  0  0  0  0  0  0  0  0
    3.5160   -2.2046   -3.0271 C   0  0  0  0  0  0  0  0  0  0  0  0
    4.0799   -2.8605   -4.1789 C   0  0  0  0  0  0  0  0  0  0  0  0
    3.8989   -4.1550   -4.4754 N   0  0  0  0  0  0  0  0  0  0  0  0
    4.5027   -4.5516   -5.5823 C   0  0  0  0  0  0  0  0  0  0  0  0
    4.3994   -5.9729   -6.0472 C   0  0  0  0  0  0  0  0  0  0  0  0
    5.2418   -3.5235   -6.2799 C   0  0  0  0  0  0  0  0  0  0  0  0
    5.9488   -3.6595   -7.4579 C   0  0  0  0  0  0  0  0  0  0  0  0
    6.0927   -4.6695   -8.2013 O   0  0  0  0  0  0  0  0  0  0  0  0
    6.6566   -2.4675   -7.8627 O   0  0  0  0  0  0  0  0  0  0  0  0
    6.3547   -1.9455   -9.0904 C   0  0  0  0  0  0  0  0  0  0  0  0
    7.2056   -2.6147  -10.2335 C   0  0  0  0  0  0  0  0  0  0  0  0
    7.5651   -1.8060  -11.1362 O   0  0  0  0  0  0  0  0  0  0  0  0
    7.4509   -3.8778  -10.1920 N   0  0  0  0  0  0  0  0  0  0  0  0
    8.2279   -4.6256  -11.2080 C   0  0  1  0  0  0  0  0  0  0  0  0
    9.7146   -4.6216  -10.8438 C   0  0  0  0  0  0  0  0  0  0  0  0
    7.6499   -6.0419  -11.3247 C   0  0  0  0  0  0  0  0  0  0  0  0
    6.1724   -6.0982  -11.7142 C   0  0  0  0  0  0  0  0  0  0  0  0
    5.1110   -2.0105   -5.3582 S   0  0  0  0  0  0  0  0  0  0  0  0
    3.7185   -0.8290   -2.7553 C   0  0  0  0  0  0  0  0  0  0  0  0
    3.1578   -0.2291   -1.6310 C   0  0  0  0  0  0  0  0  0  0  0  0
    2.2817    0.0764    2.6265 H   0  0  0  0  0  0  0  0  0  0  0  0
    3.6985    0.0821    1.5432 H   0  0  0  0  0  0  0  0  0  0  0  0
    2.9403   -1.4572    1.9990 H   0  0  0  0  0  0  0  0  0  0  0  0
    1.5866    0.7531    0.3159 H   0  0  0  0  0  0  0  0  0  0  0  0
    0.8337   -0.7780    0.7677 H   0  0  0  0  0  0  0  0  0  0  0  0
    1.5527   -2.9182   -0.3096 H   0  0  0  0  0  0  0  0  0  0  0  0
    2.5484   -3.9972   -2.3098 H   0  0  0  0  0  0  0  0  0  0  0  0
    3.7980   -6.5430   -5.3266 H   0  0  0  0  0  0  0  0  0  0  0  0
    5.3933   -6.4391   -6.1439 H   0  0  0  0  0  0  0  0  0  0  0  0
    3.9335   -6.0395   -7.0439 H   0  0  0  0  0  0  0  0  0  0  0  0
    6.5740   -0.8683   -9.0996 H   0  0  0  0  0  0  0  0  0  0  0  0
    5.3065   -2.0933   -9.4106 H   0  0  0  0  0  0  0  0  0  0  0  0
    6.9613   -4.3678   -9.3271 H   0  0  0  0  0  0  0  0  0  0  0  0
    8.0897   -4.1097  -12.1736 H   0  0  0  0  0  0  0  0  0  0  0  0
    9.8812   -5.1144   -9.8737 H   0  0  0  0  0  0  0  0  0  0  0  0
   10.1154   -3.5983  -10.7842 H   0  0  0  0  0  0  0  0  0  0  0  0
   10.2890   -5.1650  -11.6086 H   0  0  0  0  0  0  0  0  0  0  0  0
    7.8076   -6.5665  -10.3663 H   0  0  0  0  0  0  0  0  0  0  0  0
    8.2594   -6.5777  -12.0709 H   0  0  0  0  0  0  0  0  0  0  0  0
    5.5329   -5.6480  -10.9392 H   0  0  0  0  0  0  0  0  0  0  0  0
    5.8454   -7.1412  -11.8394 H   0  0  0  0  0  0  0  0  0  0  0  0
    5.9834   -5.5745  -12.6663 H   0  0  0  0  0  0  0  0  0  0  0  0
    4.3201   -0.2242   -3.4391 H   0  0  0  0  0  0  0  0  0  0  0  0
    3.3321    0.8371   -1.4545 H   0  0  0  0  0  0  0  0  0  0  0  0
  1  2  1  0
  1 26  1  0
  1 27  1  0
  1 28  1  0
  2  3  1  0
  2 29  1  0
  2 30  1  0
  3  4  2  0
  3 25  1  0
  4  5  1  0
  4 31  1  0
  5  6  2  0
  5 32  1  0
  6  7  1  0
  6 24  1  0
  7  8  2  0
  7 23  1  0
  8  9  1  0
  9 10  1  0
  9 11  2  0
 10 33  1  0
 10 34  1  0
 10 35  1  0
 11 12  1  0
 11 23  1  0
 12 13  2  0
 12 14  1  0
 14 15  1  0
 15 16  1  0
 15 36  1  0
 15 37  1  0
 16 17  2  0
 16 18  1  0
 18 19  1  0
 18 38  1  0
 19 20  1  0
 19 21  1  0
 19 39  1  6
 20 40  1  0
 20 41  1  0
 20 42  1  0
 21 22  1  0
 21 43  1  0
 21 44  1  0
 22 45  1  0
 22 46  1  0
 22 47  1  0
 24 25  2  0
 24 48  1  0
 25 49  1  0
M  END

