
     RDKit          3D

 71 77  0  0  0  0  0  0  0  0999 V2000
    2.6212   -0.1254    0.5413 C   0  0  0  0  0  0  0  0  0  0  0  0
    2.1200    1.1219    1.0285 C   0  0  0  0  0  0  0  0  0  0  0  0
    0.8534    1.5168    0.6352 C   0  0  0  0  0  0  0  0  0  0  0  0
    0.1301    0.6559   -0.2293 C   0  0  0  0  0  0  0  0  0  0  0  0
   -1.1217    1.2443   -0.5029 C   0  0  0  0  0  0  0  0  0  0  0  0
   -1.9772    0.5559   -1.3554 C   0  0  0  0  0  0  0  0  0  0  0  0
   -1.5490   -0.6947   -1.8837 C   0  0  0  0  0  0  0  0  0  0  0  0
   -0.3098   -1.2526   -1.5890 C   0  0  0  0  0  0  0  0  0  0  0  0
    0.5935   -0.5693   -0.7279 C   0  0  0  0  0  0  0  0  0  0  0  0
    1.9050   -0.9573   -0.3060 C   0  0  0  0  0  0  0  0  0  0  0  0
   -1.0530    2.5241    0.2976 C   0  0  0  0  0  0  0  0  0  0  0  0
   -2.0291    3.4688    0.4143 N   0  0  0  0  0  0  0  0  0  0  0  0
   -1.7858    4.6068    1.3058 C   0  0  0  0  0  0  0  0  0  0  0  0
   -0.9142    5.7067    0.6841 C   0  0  0  0  0  0  0  0  0  0  0  0
   -0.8285    6.8195    1.5542 O   0  0  0  0  0  0  0  0  0  0  0  0
   -1.7792    7.8349    1.3141 C   0  0  0  0  0  0  0  0  0  0  0  0
   -1.3332    8.7681    0.1912 C   0  0  0  0  0  0  0  0  0  0  0  0
   -2.3830    9.6769   -0.0665 O   0  0  0  0  0  0  0  0  0  0  0  0
   -2.4062   10.2548   -1.3543 C   0  0  0  0  0  0  0  0  0  0  0  0
   -3.3180    9.4981   -2.3202 C   0  0  0  0  0  0  0  0  0  0  0  0
   -2.8261    8.1591   -2.7034 N   0  0  0  0  0  0  0  0  0  0  0  0
   -1.7380    8.1817   -3.5716 C   0  0  0  0  0  0  0  0  0  0  0  0
   -1.4019    9.2777   -4.2181 N   0  0  0  0  0  0  0  0  0  0  0  0
   -0.2285    8.9982   -4.9317 C   0  0  0  0  0  0  0  0  0  0  0  0
    0.5489    9.7753   -5.7698 C   0  0  0  0  0  0  0  0  0  0  0  0
    1.7212    9.1844   -6.3376 C   0  0  0  0  0  0  0  0  0  0  0  0
    2.1226    7.8841   -6.0680 C   0  0  0  0  0  0  0  0  0  0  0  0
    1.3371    7.0667   -5.1941 C   0  0  0  0  0  0  0  0  0  0  0  0
    1.5882    5.7460   -4.7248 C   0  0  0  0  0  0  0  0  0  0  0  0
    0.7224    5.1562   -3.8088 C   0  0  0  0  0  0  0  0  0  0  0  0
   -0.4475    5.8065   -3.3227 C   0  0  0  0  0  0  0  0  0  0  0  0
   -0.7412    7.0781   -3.7970 C   0  0  0  0  0  0  0  0  0  0  0  0
    0.1759    7.6653   -4.6899 C   0  0  0  0  0  0  0  0  0  0  0  0
   -3.9419    7.2283   -2.9525 C   0  0  0  0  0  0  0  0  0  0  0  0
   -3.6963    5.7306   -3.0240 C   0  0  0  0  0  0  0  0  0  0  0  0
   -3.3452    5.2085   -1.7576 O   0  0  0  0  0  0  0  0  0  0  0  0
   -3.4131    3.8007   -1.6869 C   0  0  0  0  0  0  0  0  0  0  0  0
   -3.3214    3.3303   -0.2353 C   0  0  0  0  0  0  0  0  0  0  0  0
    0.0991    2.6517    0.9292 N   0  0  0  0  0  0  0  0  0  0  0  0
    3.6222   -0.4335    0.8560 H   0  0  0  0  0  0  0  0  0  0  0  0
    2.7268    1.7400    1.6936 H   0  0  0  0  0  0  0  0  0  0  0  0
   -2.9614    0.9257   -1.6457 H   0  0  0  0  0  0  0  0  0  0  0  0
   -2.2274   -1.2326   -2.5510 H   0  0  0  0  0  0  0  0  0  0  0  0
   -0.0308   -2.2162   -2.0248 H   0  0  0  0  0  0  0  0  0  0  0  0
    2.3371   -1.9007   -0.6490 H   0  0  0  0  0  0  0  0  0  0  0  0
   -1.2923    4.2417    2.2182 H   0  0  0  0  0  0  0  0  0  0  0  0
   -2.7632    5.0303    1.5809 H   0  0  0  0  0  0  0  0  0  0  0  0
   -1.3341    5.9892   -0.2956 H   0  0  0  0  0  0  0  0  0  0  0  0
    0.1024    5.3153    0.5325 H   0  0  0  0  0  0  0  0  0  0  0  0
   -1.9027    8.4023    2.2504 H   0  0  0  0  0  0  0  0  0  0  0  0
   -2.7705    7.4209    1.0459 H   0  0  0  0  0  0  0  0  0  0  0  0
   -1.0991    8.1657   -0.7021 H   0  0  0  0  0  0  0  0  0  0  0  0
   -0.4066    9.2992    0.4895 H   0  0  0  0  0  0  0  0  0  0  0  0
   -1.3914   10.3590   -1.7748 H   0  0  0  0  0  0  0  0  0  0  0  0
   -2.8171   11.2737   -1.2467 H   0  0  0  0  0  0  0  0  0  0  0  0
   -3.4891   10.1191   -3.2178 H   0  0  0  0  0  0  0  0  0  0  0  0
   -4.2815    9.3569   -1.8107 H   0  0  0  0  0  0  0  0  0  0  0  0
    0.2900   10.8134   -5.9898 H   0  0  0  0  0  0  0  0  0  0  0  0
    2.3361    9.7973   -7.0021 H   0  0  0  0  0  0  0  0  0  0  0  0
    3.0427    7.4915   -6.5085 H   0  0  0  0  0  0  0  0  0  0  0  0
    2.4737    5.2008   -5.0635 H   0  0  0  0  0  0  0  0  0  0  0  0
    0.9490    4.1542   -3.4360 H   0  0  0  0  0  0  0  0  0  0  0  0
   -1.0686    5.3047   -2.5805 H   0  0  0  0  0  0  0  0  0  0  0  0
   -4.4561    7.5089   -3.8959 H   0  0  0  0  0  0  0  0  0  0  0  0
   -4.6640    7.3844   -2.1384 H   0  0  0  0  0  0  0  0  0  0  0  0
   -2.9458    5.4637   -3.7889 H   0  0  0  0  0  0  0  0  0  0  0  0
   -4.6550    5.2821   -3.3560 H   0  0  0  0  0  0  0  0  0  0  0  0
   -2.6149    3.3358   -2.2990 H   0  0  0  0  0  0  0  0  0  0  0  0
   -4.3829    3.4486   -2.0974 H   0  0  0  0  0  0  0  0  0  0  0  0
   -3.6428    2.2780   -0.1939 H   0  0  0  0  0  0  0  0  0  0  0  0
   -4.0572    3.9042    0.3479 H   0  0  0  0  0  0  0  0  0  0  0  0
  1  2  2  0
  1 10  1  0
  1 40  1  0
  2  3  1  0
  2 41  1  0
  3  4  2  0
  3 39  1  0
  4  5  1  0
  4  9  1  0
  5  6  2  0
  5 11  1  0
  6  7  1  0
  6 42  1  0
  7  8  2  0
  7 43  1  0
  8  9  1  0
  8 44  1  0
  9 10  2  0
 10 45  1  0
 11 12  1  0
 11 39  2  0
 12 13  1  0
 12 38  1  0
 13 14  1  0
 13 46  1  0
 13 47  1  0
 14 15  1  0
 14 48  1  0
 14 49  1  0
 15 16  1  0
 16 17  1  0
 16 50  1  0
 16 51  1  0
 17 18  1  0
 17 52  1  0
 17 53  1  0
 18 19  1  0
 19 20  1  0
 19 54  1  0
 19 55  1  0
 20 21  1  0
 20 56  1  0
 20 57  1  0
 21 22  1  0
 21 34  1  0
 22 23  2  0
 22 32  1  0
 23 24  1  0
 24 25  1  0
 24 33  2  0
 25 26  2  0
 25 58  1  0
 26 27  1  0
 26 59  1  0
 27 28  2  0
 27 60  1  0
 28 29  1  0
 28 33  1  0
 29 30  2  0
 29 61  1  0
 30 31  1  0
 30 62  1  0
 31 32  2  0
 31 63  1  0
 32 33  1  0
 34 35  1  0
 34 64  1  0
 34 65  1  0
 35 36  1  0
 35 66  1  0
 35 67  1  0
 36 37  1  0
 37 38  1  0
 37 68  1  0
 37 69  1  0
 38 70  1  0
 38 71  1  0
M  END

