
     RDKit          3D

 37 38  0  0  0  0  0  0  0  0999 V2000
    1.4311    0.4039   -0.8990 C   0  0  0  0  0  0  0  0  0  0  0  0
    2.1834   -0.1668    0.1538 O   0  0  0  0  0  0  0  0  0  0  0  0
    2.7452    0.6350    1.0778 C   0  0  0  0  0  0  0  0  0  0  0  0
    2.6354    2.0299    1.0771 C   0  0  0  0  0  0  0  0  0  0  0  0
    3.2384    2.7950    2.0860 C   0  0  0  0  0  0  0  0  0  0  0  0
    3.0579    4.2831    1.9902 C   0  0  0  0  0  0  0  0  0  0  0  0
    2.6070    4.8287    1.0031 O   0  0  0  0  0  0  0  0  0  0  0  0
    3.4110    5.0081    3.1225 N   0  0  0  0  0  0  0  0  0  0  0  0
    3.4731    6.7128    3.2056 S   0  0  1  0  0  0  0  0  0  0  0  0
    3.8843    6.9574    4.5837 O   0  0  0  0  0  0  0  0  0  0  0  0
    4.2325    7.2227    2.0741 O   0  0  0  0  0  0  0  0  0  0  0  0
    1.7716    7.2141    2.9888 C   0  0  0  0  0  0  0  0  0  0  0  0
    1.4220    7.9669    1.8634 C   0  0  0  0  0  0  0  0  0  0  0  0
    0.1149    8.4203    1.6991 C   0  0  0  0  0  0  0  0  0  0  0  0
   -0.8312    8.1021    2.6742 C   0  0  0  0  0  0  0  0  0  0  0  0
   -2.0857    8.5290    2.5276 F   0  0  0  0  0  0  0  0  0  0  0  0
   -0.5144    7.3434    3.8007 C   0  0  0  0  0  0  0  0  0  0  0  0
    0.7970    6.9042    3.9461 C   0  0  0  0  0  0  0  0  0  0  0  0
    1.1113    6.1583    5.0040 F   0  0  0  0  0  0  0  0  0  0  0  0
    3.9743    2.1669    3.0954 C   0  0  0  0  0  0  0  0  0  0  0  0
    4.1002    0.7708    3.1123 C   0  0  0  0  0  0  0  0  0  0  0  0
    4.7787    0.1784    4.1328 O   0  0  0  0  0  0  0  0  0  0  0  0
    6.1640   -0.0652    3.9183 C   0  0  0  0  0  0  0  0  0  0  0  0
    3.4866    0.0066    2.1074 C   0  0  0  0  0  0  0  0  0  0  0  0
    3.6221   -1.8804    2.1387 Br  0  0  0  0  0  0  0  0  0  0  0  0
    1.0826   -0.4344   -1.5160 H   0  0  0  0  0  0  0  0  0  0  0  0
    2.0458    1.0792   -1.5191 H   0  0  0  0  0  0  0  0  0  0  0  0
    0.5574    0.9612   -0.5188 H   0  0  0  0  0  0  0  0  0  0  0  0
    2.0852    2.5603    0.3016 H   0  0  0  0  0  0  0  0  0  0  0  0
    3.6350    4.5649    4.0083 H   0  0  0  0  0  0  0  0  0  0  0  0
    2.1933    8.1829    1.1228 H   0  0  0  0  0  0  0  0  0  0  0  0
   -0.1828    9.0099    0.8309 H   0  0  0  0  0  0  0  0  0  0  0  0
   -1.2699    7.0979    4.5476 H   0  0  0  0  0  0  0  0  0  0  0  0
    4.4809    2.7189    3.8888 H   0  0  0  0  0  0  0  0  0  0  0  0
    6.5499   -0.5252    4.8380 H   0  0  0  0  0  0  0  0  0  0  0  0
    6.7115    0.8750    3.7265 H   0  0  0  0  0  0  0  0  0  0  0  0
    6.3264   -0.7566    3.0744 H   0  0  0  0  0  0  0  0  0  0  0  0
  1  2  1  0
  1 26  1  0
  1 27  1  0
  1 28  1  0
  2  3  1  0
  3  4  2  0
  3 24  1  0
  4  5  1  0
  4 29  1  0
  5  6  1  0
  5 20  2  0
  6  7  2  0
  6  8  1  0
  9  8  1  6
  8 30  1  0
  9 10  2  0
  9 11  2  0
  9 12  1  0
 12 13  2  0
 12 18  1  0
 13 14  1  0
 13 31  1  0
 14 15  2  0
 14 32  1  0
 15 16  1  0
 15 17  1  0
 17 18  2  0
 17 33  1  0
 18 19  1  0
 20 21  1  0
 20 34  1  0
 21 22  1  0
 21 24  2  0
 22 23  1  0
 23 35  1  0
 23 36  1  0
 23 37  1  0
 24 25  1  0
M  END

