
     RDKit          3D

 25 25  0  0  0  0  0  0  0  0999 V2000
    1.2478   -0.3564    0.2051 C   0  0  0  0  0  0  0  0  0  0  0  0
    2.7147   -0.2222   -0.1344 C   0  0  1  0  0  0  0  0  0  0  0  0
    3.2135   -0.3809   -1.5327 C   0  0  0  0  0  0  0  0  0  0  0  0
    3.2169    0.9975   -0.8935 C   0  0  2  0  0  0  0  0  0  0  0  0
    4.5398    1.5680   -0.4888 C   0  0  0  0  0  0  0  0  0  0  0  0
    5.4718    0.8731   -0.1153 O   0  0  0  0  0  0  0  0  0  0  0  0
    4.6343    2.9374   -0.5776 N   0  0  0  0  0  0  0  0  0  0  0  0
    5.8229    3.6577   -0.1776 C   0  0  1  0  0  0  0  0  0  0  0  0
    6.4027    4.5177   -1.3025 C   0  0  0  0  0  0  0  0  0  0  0  0
    5.5201    4.4897    1.0695 C   0  0  1  0  0  0  0  0  0  0  0  0
    5.0835    3.7295    2.0808 F   0  0  0  0  0  0  0  0  0  0  0  0
    6.6095    5.1511    1.4935 F   0  0  0  0  0  0  0  0  0  0  0  0
    4.5629    5.4112    0.8172 F   0  0  0  0  0  0  0  0  0  0  0  0
    0.9804   -1.4124    0.3762 H   0  0  0  0  0  0  0  0  0  0  0  0
    0.6086    0.0193   -0.6106 H   0  0  0  0  0  0  0  0  0  0  0  0
    0.9931    0.2047    1.1192 H   0  0  0  0  0  0  0  0  0  0  0  0
    3.4116   -0.5626    0.6391 H   0  0  0  0  0  0  0  0  0  0  0  0
    2.4861   -0.5545   -2.3315 H   0  0  0  0  0  0  0  0  0  0  0  0
    4.1935   -0.8427   -1.6764 H   0  0  0  0  0  0  0  0  0  0  0  0
    2.4599    1.7099   -1.2373 H   0  0  0  0  0  0  0  0  0  0  0  0
    3.8256    3.4735   -0.8697 H   0  0  0  0  0  0  0  0  0  0  0  0
    6.5476    2.8893    0.1311 H   0  0  0  0  0  0  0  0  0  0  0  0
    5.6799    5.2825   -1.6285 H   0  0  0  0  0  0  0  0  0  0  0  0
    6.6488    3.8795   -2.1627 H   0  0  0  0  0  0  0  0  0  0  0  0
    7.3170    5.0312   -0.9723 H   0  0  0  0  0  0  0  0  0  0  0  0
  1  2  1  0
  1 14  1  0
  1 15  1  0
  1 16  1  0
  2  3  1  0
  2  4  1  0
  2 17  1  1
  3  4  1  0
  3 18  1  0
  3 19  1  0
  4  5  1  0
  4 20  1  6
  5  6  2  0
  5  7  1  0
  7  8  1  0
  7 21  1  0
  8  9  1  0
  8 10  1  0
  8 22  1  1
  9 23  1  0
  9 24  1  0
  9 25  1  0
 10 11  1  1
 10 12  1  0
 10 13  1  0
M  END

