
     RDKit          3D

 35 35  0  0  0  0  0  0  0  0999 V2000
    0.8250    0.3302    0.7288 C   0  0  0  0  0  0  0  0  0  0  0  0
    2.1265   -0.0233    0.0069 C   0  0  0  0  0  0  0  0  0  0  0  0
    3.0426   -1.0074    0.7702 C   0  0  1  0  0  0  0  0  0  0  0  0
    2.4198   -2.4004    0.9449 C   0  0  0  0  0  0  0  0  0  0  0  0
    2.3475   -3.0957   -0.3324 N   0  0  0  0  0  0  0  0  0  0  0  0
    1.5648   -4.3139   -0.3312 C   0  0  0  0  0  0  0  0  0  0  0  0
    0.0791   -4.1146   -0.0620 C   0  0  0  0  0  0  0  0  0  0  0  0
   -0.4628   -3.2167   -1.0050 O   0  0  0  0  0  0  0  0  0  0  0  0
   -1.8297   -3.0012   -0.8674 C   0  0  0  0  0  0  0  0  0  0  0  0
   -2.2477   -1.8846   -1.8079 C   0  0  1  0  0  0  0  0  0  0  0  0
   -1.6210   -0.7332   -1.5266 F   0  0  0  0  0  0  0  0  0  0  0  0
   -1.9994   -2.1857   -3.0880 F   0  0  0  0  0  0  0  0  0  0  0  0
   -3.5714   -1.6711   -1.6840 F   0  0  0  0  0  0  0  0  0  0  0  0
    3.6744   -3.2666   -0.9076 C   0  0  0  0  0  0  0  0  0  0  0  0
    4.3519   -1.9117   -1.0957 C   0  0  0  0  0  0  0  0  0  0  0  0
    4.3675   -1.1919    0.1716 N   0  0  0  0  0  0  0  0  0  0  0  0
    0.2870    1.1345    0.2033 H   0  0  0  0  0  0  0  0  0  0  0  0
    1.0091    0.6711    1.7626 H   0  0  0  0  0  0  0  0  0  0  0  0
    0.1406   -0.5310    0.7699 H   0  0  0  0  0  0  0  0  0  0  0  0
    2.7085    0.9000   -0.1696 H   0  0  0  0  0  0  0  0  0  0  0  0
    1.8828   -0.4417   -0.9821 H   0  0  0  0  0  0  0  0  0  0  0  0
    3.2022   -0.5991    1.7856 H   0  0  0  0  0  0  0  0  0  0  0  0
    1.4111   -2.2978    1.3686 H   0  0  0  0  0  0  0  0  0  0  0  0
    3.0309   -2.9701    1.6829 H   0  0  0  0  0  0  0  0  0  0  0  0
    1.9341   -5.0661    0.4085 H   0  0  0  0  0  0  0  0  0  0  0  0
    1.6660   -4.7780   -1.3261 H   0  0  0  0  0  0  0  0  0  0  0  0
   -0.1010   -3.7392    0.9658 H   0  0  0  0  0  0  0  0  0  0  0  0
   -0.4211   -5.1031   -0.1279 H   0  0  0  0  0  0  0  0  0  0  0  0
   -2.1092   -2.6878    0.1587 H   0  0  0  0  0  0  0  0  0  0  0  0
   -2.4328   -3.8969   -1.1212 H   0  0  0  0  0  0  0  0  0  0  0  0
    3.5810   -3.7697   -1.8839 H   0  0  0  0  0  0  0  0  0  0  0  0
    4.3187   -3.9082   -0.2606 H   0  0  0  0  0  0  0  0  0  0  0  0
    3.8288   -1.3715   -1.9137 H   0  0  0  0  0  0  0  0  0  0  0  0
    5.3919   -2.0715   -1.4262 H   0  0  0  0  0  0  0  0  0  0  0  0
    4.8445   -0.2977    0.0739 H   0  0  0  0  0  0  0  0  0  0  0  0
  1  2  1  0
  1 17  1  0
  1 18  1  0
  1 19  1  0
  2  3  1  0
  2 20  1  0
  2 21  1  0
  3  4  1  0
  3 16  1  0
  3 22  1  1
  4  5  1  0
  4 23  1  0
  4 24  1  0
  5  6  1  0
  5 14  1  0
  6  7  1  0
  6 25  1  0
  6 26  1  0
  7  8  1  0
  7 27  1  0
  7 28  1  0
  8  9  1  0
  9 10  1  0
  9 29  1  0
  9 30  1  0
 10 11  1  1
 10 12  1  0
 10 13  1  0
 14 15  1  0
 14 31  1  0
 14 32  1  0
 15 16  1  0
 15 33  1  0
 15 34  1  0
 16 35  1  0
M  END

