
     RDKit          3D

 38 38  0  0  0  0  0  0  0  0999 V2000
    3.0270   -0.2525    1.9384 C   0  0  0  0  0  0  0  0  0  0  0  0
    2.6294   -0.0557    0.4652 C   0  0  0  0  0  0  0  0  0  0  0  0
    2.9961    1.2502   -0.0377 N   0  0  0  0  0  0  0  0  0  0  0  0
    2.0052    2.2721   -0.2585 C   0  0  0  0  0  0  0  0  0  0  0  0
    1.7625    2.5505   -1.7666 C   0  0  1  0  0  0  0  0  0  0  0  0
    1.0915    1.3793   -2.4854 C   0  0  0  0  0  0  0  0  0  0  0  0
    0.9516    3.8513   -1.9082 C   0  0  0  0  0  0  0  0  0  0  0  0
    0.7326    4.2072   -3.2523 O   0  0  0  0  0  0  0  0  0  0  0  0
    4.3873    1.5959   -0.2238 C   0  0  0  0  0  0  0  0  0  0  0  0
    5.0980    1.0741   -1.2851 C   0  0  0  0  0  0  0  0  0  0  0  0
    6.4708    1.4016   -1.4524 C   0  0  0  0  0  0  0  0  0  0  0  0
    7.1075    2.2099   -0.4384 C   0  0  0  0  0  0  0  0  0  0  0  0
    8.5963    2.4465   -0.5596 C   0  0  0  0  0  0  0  0  0  0  0  0
    9.1015    3.4873    0.3299 N   0  0  0  0  0  0  0  0  0  0  0  0
    6.3759    2.7143    0.6176 C   0  0  0  0  0  0  0  0  0  0  0  0
    4.9582    2.5110    0.7356 C   0  0  0  0  0  0  0  0  0  0  0  0
    2.7719   -1.2790    2.2409 H   0  0  0  0  0  0  0  0  0  0  0  0
    2.4858    0.4488    2.5911 H   0  0  0  0  0  0  0  0  0  0  0  0
    4.1057   -0.0947    2.0677 H   0  0  0  0  0  0  0  0  0  0  0  0
    1.5456   -0.1939    0.3308 H   0  0  0  0  0  0  0  0  0  0  0  0
    3.1616   -0.7987   -0.1512 H   0  0  0  0  0  0  0  0  0  0  0  0
    2.4060    3.1928    0.2018 H   0  0  0  0  0  0  0  0  0  0  0  0
    1.0624    1.9871    0.2344 H   0  0  0  0  0  0  0  0  0  0  0  0
    2.7582    2.7258   -2.2101 H   0  0  0  0  0  0  0  0  0  0  0  0
    0.1327    1.1136   -2.0073 H   0  0  0  0  0  0  0  0  0  0  0  0
    1.7301    0.4827   -2.5001 H   0  0  0  0  0  0  0  0  0  0  0  0
    0.8742    1.6608   -3.5256 H   0  0  0  0  0  0  0  0  0  0  0  0
    1.4564    4.6622   -1.3462 H   0  0  0  0  0  0  0  0  0  0  0  0
   -0.0482    3.7204   -1.4584 H   0  0  0  0  0  0  0  0  0  0  0  0
    1.5808    4.4560   -3.6441 H   0  0  0  0  0  0  0  0  0  0  0  0
    4.6001    0.4165   -2.0048 H   0  0  0  0  0  0  0  0  0  0  0  0
    7.0479    0.9688   -2.2702 H   0  0  0  0  0  0  0  0  0  0  0  0
    8.8195    2.6291   -1.6366 H   0  0  0  0  0  0  0  0  0  0  0  0
    9.1284    1.5049   -0.3160 H   0  0  0  0  0  0  0  0  0  0  0  0
    8.7004    4.3888    0.0675 H   0  0  0  0  0  0  0  0  0  0  0  0
   10.1119    3.5775    0.2293 H   0  0  0  0  0  0  0  0  0  0  0  0
    6.9023    3.2811    1.3889 H   0  0  0  0  0  0  0  0  0  0  0  0
    4.4292    2.7635    1.6566 H   0  0  0  0  0  0  0  0  0  0  0  0
  1  2  1  0
  1 17  1  0
  1 18  1  0
  1 19  1  0
  2  3  1  0
  2 20  1  0
  2 21  1  0
  3  4  1  0
  3  9  1  0
  4  5  1  0
  4 22  1  0
  4 23  1  0
  5  6  1  0
  5  7  1  0
  5 24  1  6
  6 25  1  0
  6 26  1  0
  6 27  1  0
  7  8  1  0
  7 28  1  0
  7 29  1  0
  8 30  1  0
  9 10  2  0
  9 16  1  0
 10 11  1  0
 10 31  1  0
 11 12  2  0
 11 32  1  0
 12 13  1  0
 12 15  1  0
 13 14  1  0
 13 33  1  0
 13 34  1  0
 14 35  1  0
 14 36  1  0
 15 16  2  0
 15 37  1  0
 16 38  1  0
M  END

