
     RDKit          3D

 65 69  0  0  0  0  0  0  0  0999 V2000
    2.4674   -0.3011   -1.5392 C   0  0  0  0  0  0  0  0  0  0  0  0
    2.2607    0.0103   -0.0501 C   0  0  1  0  0  0  0  0  0  0  0  0
    1.1913    0.1868    0.1283 H   0  0  0  0  0  0  0  0  0  0  0  0
    2.6757   -1.1294    0.8869 C   0  0  0  0  0  0  0  0  0  0  0  0
    4.1717   -1.3969    0.7834 C   0  0  0  0  0  0  0  0  0  0  0  0
    4.9783   -0.1158    0.8245 C   0  0  0  0  0  0  0  0  0  0  0  0
    4.3634    1.1498    0.6662 C   0  0  0  0  0  0  0  0  0  0  0  0
    5.1509    2.3102    0.7850 C   0  0  0  0  0  0  0  0  0  0  0  0
    6.4925    2.2142    1.1225 C   0  0  0  0  0  0  0  0  0  0  0  0
    7.1395    0.9796    1.3006 C   0  0  0  0  0  0  0  0  0  0  0  0
    8.5512    0.9332    1.7165 C   0  0  0  0  0  0  0  0  0  0  0  0
    9.1971    0.0418    2.6160 C   0  0  0  0  0  0  0  0  0  0  0  0
   10.4740    0.3590    2.7968 N   0  0  0  0  0  0  0  0  0  0  0  0
   10.6960    1.4373    2.0246 N   0  0  0  0  0  0  0  0  0  0  0  0
   11.9827    2.1652    2.0770 C   0  0  1  0  0  0  0  0  0  0  0  0
   13.0987    1.3025    2.6879 C   0  0  0  0  0  0  0  0  0  0  0  0
   13.5903    0.2130    1.7329 C   0  0  0  0  0  0  0  0  0  0  0  0
   13.9887    0.8044    0.4577 N   0  0  0  0  0  0  0  0  0  0  0  0
   12.8989    1.5064   -0.2063 C   0  0  0  0  0  0  0  0  0  0  0  0
   12.4129    2.6545    0.6817 C   0  0  0  0  0  0  0  0  0  0  0  0
    9.5652    1.8234    1.3711 C   0  0  0  0  0  0  0  0  0  0  0  0
    6.3667   -0.1810    1.0899 C   0  0  0  0  0  0  0  0  0  0  0  0
    6.9896   -1.3985    1.2242 O   0  0  0  0  0  0  0  0  0  0  0  0
    7.0076   -2.3173    0.1250 C   0  0  0  0  0  0  0  0  0  0  0  0
    8.4062   -2.8685   -0.1413 C   0  0  1  0  0  0  0  0  0  0  0  0
    8.2578   -3.6808   -0.8759 H   0  0  0  0  0  0  0  0  0  0  0  0
    9.4223   -1.8678   -0.7274 C   0  0  0  0  0  0  0  0  0  0  0  0
   10.7650   -2.4406   -0.2437 C   0  0  0  0  0  0  0  0  0  0  0  0
   10.5127   -2.9387    1.1085 N   0  0  0  0  0  0  0  0  0  0  0  0
    9.1401   -3.4608    1.1103 C   0  0  0  0  0  0  0  0  0  0  0  0
    2.9693    1.2422    0.3617 N   0  0  0  0  0  0  0  0  0  0  0  0
    2.2428    2.4090    0.6259 C   0  0  0  0  0  0  0  0  0  0  0  0
    2.5852    3.2993    1.3579 O   0  0  0  0  0  0  0  0  0  0  0  0
    1.0484    2.4934   -0.0209 O   0  0  0  0  0  0  0  0  0  0  0  0
    3.5336   -0.4137   -1.7849 H   0  0  0  0  0  0  0  0  0  0  0  0
    2.0750    0.5092   -2.1763 H   0  0  0  0  0  0  0  0  0  0  0  0
    1.9466   -1.2306   -1.8190 H   0  0  0  0  0  0  0  0  0  0  0  0
    2.0997   -2.0370    0.6458 H   0  0  0  0  0  0  0  0  0  0  0  0
    2.4085   -0.8384    1.9158 H   0  0  0  0  0  0  0  0  0  0  0  0
    4.3739   -1.9554   -0.1457 H   0  0  0  0  0  0  0  0  0  0  0  0
    4.5047   -2.0564    1.6006 H   0  0  0  0  0  0  0  0  0  0  0  0
    4.6984    3.2908    0.6718 H   0  0  0  0  0  0  0  0  0  0  0  0
    7.0610    3.1343    1.2755 H   0  0  0  0  0  0  0  0  0  0  0  0
    8.7616   -0.8076    3.1384 H   0  0  0  0  0  0  0  0  0  0  0  0
   11.8221    3.0422    2.7285 H   0  0  0  0  0  0  0  0  0  0  0  0
   12.7555    0.8570    3.6307 H   0  0  0  0  0  0  0  0  0  0  0  0
   13.9363    1.9828    2.9127 H   0  0  0  0  0  0  0  0  0  0  0  0
   12.7955   -0.5552    1.6264 H   0  0  0  0  0  0  0  0  0  0  0  0
   14.4637   -0.2914    2.1769 H   0  0  0  0  0  0  0  0  0  0  0  0
   14.3840    0.0951   -0.1560 H   0  0  0  0  0  0  0  0  0  0  0  0
   12.0354    0.8451   -0.4492 H   0  0  0  0  0  0  0  0  0  0  0  0
   13.2650    1.9137   -1.1630 H   0  0  0  0  0  0  0  0  0  0  0  0
   11.6052    3.2142    0.1852 H   0  0  0  0  0  0  0  0  0  0  0  0
   13.2450    3.3622    0.8285 H   0  0  0  0  0  0  0  0  0  0  0  0
    9.5467    2.6839    0.7077 H   0  0  0  0  0  0  0  0  0  0  0  0
    6.6279   -1.8170   -0.7825 H   0  0  0  0  0  0  0  0  0  0  0  0
    6.3259   -3.1546    0.3561 H   0  0  0  0  0  0  0  0  0  0  0  0
    9.2678   -0.8685   -0.2897 H   0  0  0  0  0  0  0  0  0  0  0  0
    9.3441   -1.7780   -1.8235 H   0  0  0  0  0  0  0  0  0  0  0  0
   11.5851   -1.7060   -0.2407 H   0  0  0  0  0  0  0  0  0  0  0  0
   11.0802   -3.2757   -0.8989 H   0  0  0  0  0  0  0  0  0  0  0  0
   10.5808   -2.1592    1.7609 H   0  0  0  0  0  0  0  0  0  0  0  0
    8.6303   -3.1923    2.0476 H   0  0  0  0  0  0  0  0  0  0  0  0
    9.1456   -4.5641    1.0505 H   0  0  0  0  0  0  0  0  0  0  0  0
    1.0037    1.8823   -0.7680 H   0  0  0  0  0  0  0  0  0  0  0  0
  1  2  1  0
  1 35  1  0
  1 36  1  0
  1 37  1  0
  2  3  1  6
  2  4  1  0
  2 31  1  0
  4  5  1  0
  4 38  1  0
  4 39  1  0
  5  6  1  0
  5 40  1  0
  5 41  1  0
  6  7  2  0
  6 22  1  0
  7  8  1  0
  7 31  1  0
  8  9  2  0
  8 42  1  0
  9 10  1  0
  9 43  1  0
 10 11  1  0
 10 22  2  0
 11 12  1  0
 11 21  2  0
 12 13  2  0
 12 44  1  0
 13 14  1  0
 14 15  1  0
 14 21  1  0
 15 16  1  0
 15 20  1  0
 15 45  1  1
 16 17  1  0
 16 46  1  0
 16 47  1  0
 17 18  1  0
 17 48  1  0
 17 49  1  0
 18 19  1  0
 18 50  1  0
 19 20  1  0
 19 51  1  0
 19 52  1  0
 20 53  1  0
 20 54  1  0
 21 55  1  0
 22 23  1  0
 23 24  1  0
 24 25  1  0
 24 56  1  0
 24 57  1  0
 25 26  1  6
 25 27  1  0
 25 30  1  0
 27 28  1  0
 27 58  1  0
 27 59  1  0
 28 29  1  0
 28 60  1  0
 28 61  1  0
 29 30  1  0
 29 62  1  0
 30 63  1  0
 30 64  1  0
 31 32  1  0
 32 33  2  0
 32 34  1  0
 34 65  1  0
M  END

