
     RDKit          3D

 77 87  0  0  0  0  0  0  0  0999 V2000
   -1.2925    7.0031    2.7467 C   0  0  0  0  0  0  0  0  0  0  0  0
   -2.5912    6.5091    2.5151 C   0  0  0  0  0  0  0  0  0  0  0  0
   -2.8862    5.8245    1.3401 C   0  0  0  0  0  0  0  0  0  0  0  0
   -1.9027    5.5971    0.3534 C   0  0  0  0  0  0  0  0  0  0  0  0
   -0.5565    6.0483    0.6180 C   0  0  0  0  0  0  0  0  0  0  0  0
   -0.2960    6.7714    1.8147 C   0  0  0  0  0  0  0  0  0  0  0  0
    0.5061    5.7272   -0.2723 C   0  0  0  0  0  0  0  0  0  0  0  0
    0.3044    4.9271   -1.3938 C   0  0  0  0  0  0  0  0  0  0  0  0
   -0.9948    4.4986   -1.6432 C   0  0  0  0  0  0  0  0  0  0  0  0
   -1.3280    3.6653   -2.6659 O   0  0  0  0  0  0  0  0  0  0  0  0
   -2.6777    3.4681   -2.5789 C   0  0  0  0  0  0  0  0  0  0  0  0
   -3.3660    2.5161   -3.3084 C   0  0  0  0  0  0  0  0  0  0  0  0
   -4.7209    2.3385   -2.9539 C   0  0  0  0  0  0  0  0  0  0  0  0
   -5.3818    3.1659   -2.0261 C   0  0  0  0  0  0  0  0  0  0  0  0
   -6.7337    2.9080   -1.6288 C   0  0  0  0  0  0  0  0  0  0  0  0
   -7.3650    3.8394   -0.8405 C   0  0  0  0  0  0  0  0  0  0  0  0
   -8.5463    3.6285   -0.2076 O   0  0  0  0  0  0  0  0  0  0  0  0
   -8.7977    4.7539    0.5276 C   0  0  0  0  0  0  0  0  0  0  0  0
   -9.7502    4.7918    1.5243 C   0  0  0  0  0  0  0  0  0  0  0  0
   -9.8105    5.9863    2.2430 C   0  0  0  0  0  0  0  0  0  0  0  0
   -9.0905    7.1354    1.8463 C   0  0  0  0  0  0  0  0  0  0  0  0
   -9.5261    8.4234    2.5006 C   0  0  0  0  0  0  0  0  0  0  0  0
  -10.0880    9.3151    1.4013 C   0  0  0  0  0  0  0  0  0  0  0  0
   -8.9555    9.6277    0.4490 C   0  0  1  0  0  0  0  0  0  0  0  0
   -8.0536   10.4676    1.1730 O   0  0  0  0  0  0  0  0  0  0  0  0
   -6.7594   10.3858    0.6052 C   0  0  1  0  0  0  0  0  0  0  0  0
   -5.7049    9.9233    1.6087 C   0  0  0  0  0  0  0  0  0  0  0  0
   -4.3408    9.8336    0.9157 C   0  0  0  0  0  0  0  0  0  0  0  0
   -4.3519    8.8756   -0.2888 C   0  0  2  0  0  0  0  0  0  0  0  0
   -3.0281    8.9407   -1.0734 C   0  0  0  0  0  0  0  0  0  0  0  0
   -3.0336    8.0900   -2.3497 C   0  0  0  0  0  0  0  0  0  0  0  0
   -4.2217    8.4177   -3.2615 C   0  0  0  0  0  0  0  0  0  0  0  0
   -5.5527    8.3189   -2.5051 C   0  0  0  0  0  0  0  0  0  0  0  0
   -5.5285    9.1856   -1.2390 C   0  0  1  0  0  0  0  0  0  0  0  0
   -6.8982    9.4149   -0.5706 C   0  0  1  0  0  0  0  0  0  0  0  0
   -8.0861    8.4440   -0.1176 C   0  0  1  0  0  0  0  0  0  0  0  0
   -8.1808    7.1396    0.7506 C   0  0  0  0  0  0  0  0  0  0  0  0
   -7.8731    5.8095    0.2304 C   0  0  0  0  0  0  0  0  0  0  0  0
   -6.8478    5.1350   -0.5333 C   0  0  0  0  0  0  0  0  0  0  0  0
   -5.4508    5.3007   -0.7797 C   0  0  0  0  0  0  0  0  0  0  0  0
   -4.7019    4.3008   -1.4179 C   0  0  0  0  0  0  0  0  0  0  0  0
   -3.2547    4.2850   -1.5517 C   0  0  0  0  0  0  0  0  0  0  0  0
   -2.1345    4.8656   -0.8749 C   0  0  0  0  0  0  0  0  0  0  0  0
   -1.0697    7.5517    3.6649 H   0  0  0  0  0  0  0  0  0  0  0  0
   -3.3756    6.6616    3.2601 H   0  0  0  0  0  0  0  0  0  0  0  0
   -3.8921    5.4355    1.1912 H   0  0  0  0  0  0  0  0  0  0  0  0
    0.7216    7.1269    1.9979 H   0  0  0  0  0  0  0  0  0  0  0  0
    1.5107    6.0880   -0.0386 H   0  0  0  0  0  0  0  0  0  0  0  0
    1.1214    4.6306   -2.0532 H   0  0  0  0  0  0  0  0  0  0  0  0
   -2.8675    1.8978   -4.0543 H   0  0  0  0  0  0  0  0  0  0  0  0
   -5.2906    1.5323   -3.4238 H   0  0  0  0  0  0  0  0  0  0  0  0
   -7.2284    1.9717   -1.8934 H   0  0  0  0  0  0  0  0  0  0  0  0
  -10.3786    3.9278    1.7434 H   0  0  0  0  0  0  0  0  0  0  0  0
  -10.5035    6.0730    3.0829 H   0  0  0  0  0  0  0  0  0  0  0  0
   -8.6836    8.9496    2.9764 H   0  0  0  0  0  0  0  0  0  0  0  0
  -10.2740    8.2193    3.2801 H   0  0  0  0  0  0  0  0  0  0  0  0
  -10.4770   10.2678    1.7963 H   0  0  0  0  0  0  0  0  0  0  0  0
  -10.9096    8.8067    0.8702 H   0  0  0  0  0  0  0  0  0  0  0  0
   -9.3553   10.1825   -0.4235 H   0  0  0  0  0  0  0  0  0  0  0  0
   -6.4679   11.3881    0.2307 H   0  0  0  0  0  0  0  0  0  0  0  0
   -5.9995    8.9367    2.0072 H   0  0  0  0  0  0  0  0  0  0  0  0
   -5.6721   10.6205    2.4624 H   0  0  0  0  0  0  0  0  0  0  0  0
   -3.5626    9.5173    1.6303 H   0  0  0  0  0  0  0  0  0  0  0  0
   -4.0452   10.8415    0.5675 H   0  0  0  0  0  0  0  0  0  0  0  0
   -4.4694    7.8565    0.1151 H   0  0  0  0  0  0  0  0  0  0  0  0
   -2.1914    8.6416   -0.4196 H   0  0  0  0  0  0  0  0  0  0  0  0
   -2.8425    9.9972   -1.3463 H   0  0  0  0  0  0  0  0  0  0  0  0
   -3.0761    7.0239   -2.0776 H   0  0  0  0  0  0  0  0  0  0  0  0
   -2.0842    8.2278   -2.8950 H   0  0  0  0  0  0  0  0  0  0  0  0
   -4.2269    7.7478   -4.1379 H   0  0  0  0  0  0  0  0  0  0  0  0
   -4.1065    9.4448   -3.6557 H   0  0  0  0  0  0  0  0  0  0  0  0
   -6.3815    8.6512   -3.1547 H   0  0  0  0  0  0  0  0  0  0  0  0
   -5.7632    7.2675   -2.2552 H   0  0  0  0  0  0  0  0  0  0  0  0
   -5.2971   10.2078   -1.6064 H   0  0  0  0  0  0  0  0  0  0  0  0
   -7.4390    9.9739   -1.3532 H   0  0  0  0  0  0  0  0  0  0  0  0
   -8.5465    8.1145   -1.0657 H   0  0  0  0  0  0  0  0  0  0  0  0
   -4.9494    6.1861   -0.4076 H   0  0  0  0  0  0  0  0  0  0  0  0
  1  2  2  0
  1  6  1  0
  1 44  1  0
  2  3  1  0
  2 45  1  0
  3  4  2  0
  3 46  1  0
  4  5  1  0
  4 43  1  0
  5  6  2  0
  5  7  1  0
  6 47  1  0
  7  8  2  0
  7 48  1  0
  8  9  1  0
  8 49  1  0
  9 10  1  0
  9 43  2  0
 10 11  1  0
 11 12  1  0
 11 42  2  0
 12 13  2  0
 12 50  1  0
 13 14  1  0
 13 51  1  0
 14 15  1  0
 14 41  2  0
 15 16  2  0
 15 52  1  0
 16 17  1  0
 16 39  1  0
 17 18  1  0
 18 19  1  0
 18 38  2  0
 19 20  2  0
 19 53  1  0
 20 21  1  0
 20 54  1  0
 21 22  1  0
 21 37  2  0
 22 23  1  0
 22 55  1  0
 22 56  1  0
 23 24  1  0
 23 57  1  0
 23 58  1  0
 24 25  1  0
 24 36  1  0
 24 59  1  6
 25 26  1  0
 26 27  1  0
 26 35  1  0
 26 60  1  6
 27 28  1  0
 27 61  1  0
 27 62  1  0
 28 29  1  0
 28 63  1  0
 28 64  1  0
 29 30  1  0
 29 34  1  0
 29 65  1  1
 30 31  1  0
 30 66  1  0
 30 67  1  0
 31 32  1  0
 31 68  1  0
 31 69  1  0
 32 33  1  0
 32 70  1  0
 32 71  1  0
 33 34  1  0
 33 72  1  0
 33 73  1  0
 34 35  1  0
 34 74  1  6
 35 36  1  0
 35 75  1  6
 36 37  1  0
 36 76  1  6
 37 38  1  0
 38 39  1  0
 39 40  2  0
 40 41  1  0
 40 77  1  0
 41 42  1  0
 42 43  1  0
M  END

