
     RDKit          3D

 36 37  0  0  0  0  0  0  0  0999 V2000
    2.7025   -1.4951    1.1790 N   0  0  0  0  0  0  0  0  0  0  0  0
    2.1870   -0.3915    0.3791 C   0  0  0  0  0  0  0  0  0  0  0  0
    2.6111    0.9603    0.9228 C   0  0  0  0  0  0  0  0  0  0  0  0
    1.8399    2.1087    0.7030 C   0  0  0  0  0  0  0  0  0  0  0  0
    2.2420    3.3659    1.1492 C   0  0  0  0  0  0  0  0  0  0  0  0
    3.4477    3.5197    1.8585 C   0  0  0  0  0  0  0  0  0  0  0  0
    3.9009    4.7659    2.3114 N   0  0  0  0  0  0  0  0  0  0  0  0
    3.2019    5.9711    2.3557 C   0  0  0  0  0  0  0  0  0  0  0  0
    2.0583    6.1182    1.9600 O   0  0  0  0  0  0  0  0  0  0  0  0
    3.9495    6.9976    2.8926 N   0  0  0  0  0  0  0  0  0  0  0  0
    3.4320    8.3309    3.0563 C   0  0  1  0  0  0  0  0  0  0  0  0
    3.3845    8.9743    4.4687 C   0  0  0  0  0  0  0  0  0  0  0  0
    3.7626   10.3260    3.8092 C   0  0  0  0  0  0  0  0  0  0  0  0
    4.2747    9.5407    2.5735 C   0  0  0  0  0  0  0  0  0  0  0  0
    4.2223    2.3565    2.1100 C   0  0  0  0  0  0  0  0  0  0  0  0
    5.4713    2.4267    2.9478 C   0  0  1  0  0  0  0  0  0  0  0  0
    6.3530    3.3584    2.4753 F   0  0  0  0  0  0  0  0  0  0  0  0
    5.2104    2.7961    4.2209 F   0  0  0  0  0  0  0  0  0  0  0  0
    6.1339    1.2683    2.9997 F   0  0  0  0  0  0  0  0  0  0  0  0
    3.8027    1.1087    1.6378 C   0  0  0  0  0  0  0  0  0  0  0  0
    2.5238   -2.3876    0.7212 H   0  0  0  0  0  0  0  0  0  0  0  0
    2.2382   -1.5283    2.0874 H   0  0  0  0  0  0  0  0  0  0  0  0
    1.0827   -0.3850    0.2564 H   0  0  0  0  0  0  0  0  0  0  0  0
    2.5967   -0.5053   -0.6421 H   0  0  0  0  0  0  0  0  0  0  0  0
    0.8926    2.0265    0.1610 H   0  0  0  0  0  0  0  0  0  0  0  0
    1.6301    4.2460    0.9692 H   0  0  0  0  0  0  0  0  0  0  0  0
    4.8707    4.7988    2.5983 H   0  0  0  0  0  0  0  0  0  0  0  0
    4.8598    6.7963    3.2908 H   0  0  0  0  0  0  0  0  0  0  0  0
    2.4361    8.3311    2.5927 H   0  0  0  0  0  0  0  0  0  0  0  0
    4.2008    8.5935    5.1054 H   0  0  0  0  0  0  0  0  0  0  0  0
    2.4408    8.9041    5.0312 H   0  0  0  0  0  0  0  0  0  0  0  0
    4.4844   10.9646    4.3390 H   0  0  0  0  0  0  0  0  0  0  0  0
    2.8728   10.9293    3.5717 H   0  0  0  0  0  0  0  0  0  0  0  0
    5.3542    9.3276    2.6500 H   0  0  0  0  0  0  0  0  0  0  0  0
    4.0683    9.9400    1.5684 H   0  0  0  0  0  0  0  0  0  0  0  0
    4.4019    0.2207    1.8394 H   0  0  0  0  0  0  0  0  0  0  0  0
  1  2  1  0
  1 21  1  0
  1 22  1  0
  2  3  1  0
  2 23  1  0
  2 24  1  0
  3  4  2  0
  3 20  1  0
  4  5  1  0
  4 25  1  0
  5  6  2  0
  5 26  1  0
  6  7  1  0
  6 15  1  0
  7  8  1  0
  7 27  1  0
  8  9  2  0
  8 10  1  0
 10 11  1  0
 10 28  1  0
 11 12  1  0
 11 14  1  0
 11 29  1  6
 12 13  1  0
 12 30  1  0
 12 31  1  0
 13 14  1  0
 13 32  1  0
 13 33  1  0
 14 34  1  0
 14 35  1  0
 15 16  1  0
 15 20  2  0
 16 17  1  6
 16 18  1  0
 16 19  1  0
 20 36  1  0
M  END

