
     RDKit          3D

 52 53  0  0  0  0  0  0  0  0999 V2000
    1.6501   -0.5421    0.6508 C   0  0  0  0  0  0  0  0  0  0  0  0
    2.9281    0.1712    0.5942 N   0  0  0  0  0  0  0  0  0  0  0  0
    3.1859    0.9071   -0.5992 C   0  0  0  0  0  0  0  0  0  0  0  0
    2.6760    2.1919   -0.8650 C   0  0  0  0  0  0  0  0  0  0  0  0
    3.0178    2.9223   -2.0209 C   0  0  0  0  0  0  0  0  0  0  0  0
    2.5834    4.2465   -2.1545 N   0  0  0  0  0  0  0  0  0  0  0  0
    3.5777    5.2952   -2.3555 C   0  0  0  0  0  0  0  0  0  0  0  0
    1.3435    4.6965   -1.5223 C   0  0  0  0  0  0  0  0  0  0  0  0
    0.6672    5.6727   -2.3527 N   0  0  0  0  0  0  0  0  0  0  0  0
    3.8646    2.3227   -3.0509 C   0  0  0  0  0  0  0  0  0  0  0  0
    4.0545    2.7638   -4.4409 C   0  0  0  0  0  0  0  0  0  0  0  0
    4.9216    2.2462   -5.1694 O   0  0  0  0  0  0  0  0  0  0  0  0
    3.2178    3.7584   -4.9579 N   0  0  0  0  0  0  0  0  0  0  0  0
    3.3088    4.1517   -6.3549 C   0  0  1  0  0  0  0  0  0  0  0  0
    2.5717    3.1750   -7.2991 C   0  0  0  0  0  0  0  0  0  0  0  0
    1.0503    3.2355   -7.1141 C   0  0  0  0  0  0  0  0  0  0  0  0
    0.4623    4.6585   -7.2447 C   0  0  2  0  0  0  0  0  0  0  0  0
    0.2995    5.1027   -8.6927 C   0  0  1  0  0  0  0  0  0  0  0  0
   -0.4547    4.2323   -9.3920 F   0  0  0  0  0  0  0  0  0  0  0  0
   -0.3183    6.3001   -8.7683 F   0  0  0  0  0  0  0  0  0  0  0  0
    1.4674    5.2290   -9.3580 F   0  0  0  0  0  0  0  0  0  0  0  0
    1.2522    5.6834   -6.4000 C   0  0  0  0  0  0  0  0  0  0  0  0
    2.7782    5.5805   -6.5620 C   0  0  0  0  0  0  0  0  0  0  0  0
    4.4666    1.0837   -2.7122 C   0  0  0  0  0  0  0  0  0  0  0  0
    4.1503    0.3949   -1.5259 C   0  0  0  0  0  0  0  0  0  0  0  0
    4.7345   -0.7919   -1.2065 N   0  0  0  0  0  0  0  0  0  0  0  0
    1.5621   -1.0682    1.6164 H   0  0  0  0  0  0  0  0  0  0  0  0
    1.6103   -1.2956   -0.1513 H   0  0  0  0  0  0  0  0  0  0  0  0
    0.7629    0.1137    0.5320 H   0  0  0  0  0  0  0  0  0  0  0  0
    3.0260    0.7612    1.4233 H   0  0  0  0  0  0  0  0  0  0  0  0
    2.0856    2.6750   -0.0822 H   0  0  0  0  0  0  0  0  0  0  0  0
    4.3887    4.9300   -2.9945 H   0  0  0  0  0  0  0  0  0  0  0  0
    4.0081    5.5883   -1.3755 H   0  0  0  0  0  0  0  0  0  0  0  0
    3.0999    6.1696   -2.8150 H   0  0  0  0  0  0  0  0  0  0  0  0
    1.5677    5.1606   -0.5408 H   0  0  0  0  0  0  0  0  0  0  0  0
    0.7394    3.7956   -1.3310 H   0  0  0  0  0  0  0  0  0  0  0  0
    0.2484    6.4241   -1.8111 H   0  0  0  0  0  0  0  0  0  0  0  0
   -0.0559    5.2520   -2.9316 H   0  0  0  0  0  0  0  0  0  0  0  0
    2.3971    4.0146   -4.4275 H   0  0  0  0  0  0  0  0  0  0  0  0
    4.3780    4.1141   -6.6089 H   0  0  0  0  0  0  0  0  0  0  0  0
    2.9417    2.1574   -7.1046 H   0  0  0  0  0  0  0  0  0  0  0  0
    2.8365    3.4196   -8.3407 H   0  0  0  0  0  0  0  0  0  0  0  0
    0.8019    2.8733   -6.1019 H   0  0  0  0  0  0  0  0  0  0  0  0
    0.5403    2.5553   -7.8140 H   0  0  0  0  0  0  0  0  0  0  0  0
   -0.5789    4.6385   -6.8800 H   0  0  0  0  0  0  0  0  0  0  0  0
    0.9842    5.5257   -5.3408 H   0  0  0  0  0  0  0  0  0  0  0  0
    0.9103    6.7033   -6.6369 H   0  0  0  0  0  0  0  0  0  0  0  0
    3.2698    6.2666   -5.8531 H   0  0  0  0  0  0  0  0  0  0  0  0
    3.0618    5.9099   -7.5737 H   0  0  0  0  0  0  0  0  0  0  0  0
    5.1180    0.6315   -3.4621 H   0  0  0  0  0  0  0  0  0  0  0  0
    5.5082   -1.1582   -1.7452 H   0  0  0  0  0  0  0  0  0  0  0  0
    4.5221   -1.1543   -0.2792 H   0  0  0  0  0  0  0  0  0  0  0  0
  1  2  1  0
  1 27  1  0
  1 28  1  0
  1 29  1  0
  2  3  1  0
  2 30  1  0
  3  4  2  0
  3 25  1  0
  4  5  1  0
  4 31  1  0
  5  6  1  0
  5 10  2  0
  6  7  1  0
  6  8  1  0
  7 32  1  0
  7 33  1  0
  7 34  1  0
  8  9  1  0
  8 35  1  0
  8 36  1  0
  9 37  1  0
  9 38  1  0
 10 11  1  0
 10 24  1  0
 11 12  2  0
 11 13  1  0
 13 14  1  0
 13 39  1  0
 14 15  1  0
 14 23  1  0
 14 40  1  1
 15 16  1  0
 15 41  1  0
 15 42  1  0
 16 17  1  0
 16 43  1  0
 16 44  1  0
 17 18  1  0
 17 22  1  0
 17 45  1  1
 18 19  1  6
 18 20  1  0
 18 21  1  0
 22 23  1  0
 22 46  1  0
 22 47  1  0
 23 48  1  0
 23 49  1  0
 24 25  2  0
 24 50  1  0
 25 26  1  0
 26 51  1  0
 26 52  1  0
M  END

