
     RDKit          3D

 35 37  0  0  0  0  0  0  0  0999 V2000
    1.1883   -0.0543    0.4814 C   0  0  0  0  0  0  0  0  0  0  0  0
    2.5303   -0.1896   -0.0607 N   0  0  0  0  0  0  0  0  0  0  0  0
    3.2582    0.9348   -0.2323 N   0  0  0  0  0  0  0  0  0  0  0  0
    4.4272    0.5317   -0.6931 C   0  0  0  0  0  0  0  0  0  0  0  0
    4.4815   -0.8834   -0.8250 C   0  0  0  0  0  0  0  0  0  0  0  0
    5.5940   -1.6847   -1.3369 C   0  0  0  0  0  0  0  0  0  0  0  0
    5.6006   -2.8972   -1.4252 O   0  0  0  0  0  0  0  0  0  0  0  0
    6.8345   -0.9198   -1.7824 C   0  0  0  0  0  0  0  0  0  0  0  0
    7.0333   -0.4717   -3.0981 C   0  0  0  0  0  0  0  0  0  0  0  0
    5.7528   -0.6653   -4.2648 Cl  0  0  0  0  0  0  0  0  0  0  0  0
    8.1468    0.1062   -3.5132 N   0  0  0  0  0  0  0  0  0  0  0  0
    9.1135    0.2559   -2.6090 C   0  0  0  0  0  0  0  0  0  0  0  0
    9.0524   -0.1145   -1.3308 N   0  0  0  0  0  0  0  0  0  0  0  0
    7.9310   -0.6903   -0.9360 C   0  0  0  0  0  0  0  0  0  0  0  0
    7.8273   -1.1676    0.7389 Cl  0  0  0  0  0  0  0  0  0  0  0  0
    3.2079   -1.3202   -0.4036 C   0  0  0  0  0  0  0  0  0  0  0  0
    2.6210   -2.6730   -0.3194 C   0  0  0  0  0  0  0  0  0  0  0  0
    3.3019   -3.7047    0.3514 C   0  0  0  0  0  0  0  0  0  0  0  0
    2.7446   -4.9773    0.4440 C   0  0  0  0  0  0  0  0  0  0  0  0
    1.4995   -5.2446   -0.1390 C   0  0  0  0  0  0  0  0  0  0  0  0
    0.8778   -6.6116    0.0142 C   0  0  1  0  0  0  0  0  0  0  0  0
    1.8043   -7.5843    0.0032 F   0  0  0  0  0  0  0  0  0  0  0  0
    0.2117   -6.7183    1.1809 F   0  0  0  0  0  0  0  0  0  0  0  0
   -0.0028   -6.8756   -0.9660 F   0  0  0  0  0  0  0  0  0  0  0  0
    0.8196   -4.2329   -0.8237 C   0  0  0  0  0  0  0  0  0  0  0  0
    1.3776   -2.9574   -0.9119 C   0  0  0  0  0  0  0  0  0  0  0  0
    1.1998    0.7725    1.2026 H   0  0  0  0  0  0  0  0  0  0  0  0
    0.8899   -0.9831    0.9823 H   0  0  0  0  0  0  0  0  0  0  0  0
    0.4626    0.1798   -0.3133 H   0  0  0  0  0  0  0  0  0  0  0  0
    5.2059    1.2596   -0.9188 H   0  0  0  0  0  0  0  0  0  0  0  0
   10.0422    0.7290   -2.9465 H   0  0  0  0  0  0  0  0  0  0  0  0
    4.2772   -3.5067    0.7958 H   0  0  0  0  0  0  0  0  0  0  0  0
    3.2839   -5.7712    0.9640 H   0  0  0  0  0  0  0  0  0  0  0  0
   -0.1394   -4.4456   -1.2988 H   0  0  0  0  0  0  0  0  0  0  0  0
    0.8505   -2.1820   -1.4716 H   0  0  0  0  0  0  0  0  0  0  0  0
  1  2  1  0
  1 27  1  0
  1 28  1  0
  1 29  1  0
  2  3  1  0
  2 16  1  0
  3  4  2  0
  4  5  1  0
  4 30  1  0
  5  6  1  0
  5 16  2  0
  6  7  2  0
  6  8  1  0
  8  9  2  0
  8 14  1  0
  9 10  1  0
  9 11  1  0
 11 12  2  0
 12 13  1  0
 12 31  1  0
 13 14  2  0
 14 15  1  0
 16 17  1  0
 17 18  2  0
 17 26  1  0
 18 19  1  0
 18 32  1  0
 19 20  2  0
 19 33  1  0
 20 21  1  0
 20 25  1  0
 21 22  1  1
 21 23  1  0
 21 24  1  0
 25 26  2  0
 25 34  1  0
 26 35  1  0
M  END

