
     RDKit          3D

 78 86  0  0  0  0  0  0  0  0999 V2000
    1.3920    0.4693   -0.7995 O   0  0  0  0  0  0  0  0  0  0  0  0
    2.5370    0.2872   -0.4237 C   0  0  0  0  0  0  0  0  0  0  0  0
    3.3345   -0.8569   -0.9881 C   0  0  0  0  0  0  0  0  0  0  0  0
    4.7358   -0.8447   -1.0940 C   0  0  0  0  0  0  0  0  0  0  0  0
    5.4079   -1.8998   -1.7156 C   0  0  0  0  0  0  0  0  0  0  0  0
    4.6906   -2.9852   -2.2345 C   0  0  0  0  0  0  0  0  0  0  0  0
    5.3789   -4.0590   -2.8781 N   0  0  0  0  0  0  0  0  0  0  0  0
    5.7466   -5.2078   -2.1498 C   0  0  0  0  0  0  0  0  0  0  0  0
    5.4818   -5.3607   -0.7819 C   0  0  0  0  0  0  0  0  0  0  0  0
    5.8670   -6.5223   -0.0991 C   0  0  0  0  0  0  0  0  0  0  0  0
    6.5246   -7.5489   -0.7735 C   0  0  0  0  0  0  0  0  0  0  0  0
    6.7975   -7.4086   -2.1402 C   0  0  0  0  0  0  0  0  0  0  0  0
    6.4158   -6.2563   -2.8184 C   0  0  0  0  0  0  0  0  0  0  0  0
    6.7201   -6.1810   -4.1556 O   0  0  0  0  0  0  0  0  0  0  0  0
    6.3241   -5.0780   -4.8725 C   0  0  0  0  0  0  0  0  0  0  0  0
    6.6141   -5.0616   -6.2323 C   0  0  0  0  0  0  0  0  0  0  0  0
    6.2407   -3.9672   -7.0227 C   0  0  0  0  0  0  0  0  0  0  0  0
    5.5732   -2.8960   -6.4334 C   0  0  0  0  0  0  0  0  0  0  0  0
    5.2791   -2.9117   -5.0637 C   0  0  0  0  0  0  0  0  0  0  0  0
    5.6505   -3.9987   -4.2603 C   0  0  0  0  0  0  0  0  0  0  0  0
    3.2907   -3.0024   -2.1331 C   0  0  0  0  0  0  0  0  0  0  0  0
    2.6212   -1.9435   -1.5260 C   0  0  0  0  0  0  0  0  0  0  0  0
    3.1407    1.2212    0.5906 C   0  0  0  0  0  0  0  0  0  0  0  0
    2.6720    2.5460    0.6120 C   0  0  0  0  0  0  0  0  0  0  0  0
    3.1683    3.4568    1.5448 C   0  0  0  0  0  0  0  0  0  0  0  0
    4.1131    3.0465    2.4857 C   0  0  0  0  0  0  0  0  0  0  0  0
    4.5490    1.7108    2.5224 C   0  0  0  0  0  0  0  0  0  0  0  0
    5.5898    1.3491    3.5482 C   0  0  0  0  0  0  0  0  0  0  0  0
    6.3855    2.1950    3.9184 O   0  0  0  0  0  0  0  0  0  0  0  0
    5.6476   -0.0362    4.1316 C   0  0  0  0  0  0  0  0  0  0  0  0
    4.5299   -0.8828    4.2279 C   0  0  0  0  0  0  0  0  0  0  0  0
    4.6332   -2.1230    4.8620 C   0  0  0  0  0  0  0  0  0  0  0  0
    5.8544   -2.5364    5.4101 C   0  0  0  0  0  0  0  0  0  0  0  0
    5.9558   -3.8007    6.0661 N   0  0  0  0  0  0  0  0  0  0  0  0
    6.5282   -4.9046    5.4021 C   0  0  0  0  0  0  0  0  0  0  0  0
    7.0009   -4.8417    4.0838 C   0  0  0  0  0  0  0  0  0  0  0  0
    7.5619   -5.9668    3.4647 C   0  0  0  0  0  0  0  0  0  0  0  0
    7.6550   -7.1750    4.1524 C   0  0  0  0  0  0  0  0  0  0  0  0
    7.1779   -7.2550    5.4667 C   0  0  0  0  0  0  0  0  0  0  0  0
    6.6203   -6.1391    6.0815 C   0  0  0  0  0  0  0  0  0  0  0  0
    6.1567   -6.2928    7.3648 O   0  0  0  0  0  0  0  0  0  0  0  0
    5.6345   -5.2065    8.0238 C   0  0  0  0  0  0  0  0  0  0  0  0
    5.2188   -5.3961    9.3372 C   0  0  0  0  0  0  0  0  0  0  0  0
    4.6830   -4.3304   10.0710 C   0  0  0  0  0  0  0  0  0  0  0  0
    4.5773   -3.0761    9.4741 C   0  0  0  0  0  0  0  0  0  0  0  0
    4.9970   -2.8836    8.1516 C   0  0  0  0  0  0  0  0  0  0  0  0
    5.5238   -3.9443    7.4012 C   0  0  0  0  0  0  0  0  0  0  0  0
    6.9731   -1.6926    5.3222 C   0  0  0  0  0  0  0  0  0  0  0  0
    6.8664   -0.4537    4.6965 C   0  0  0  0  0  0  0  0  0  0  0  0
    4.0692    0.8074    1.5599 C   0  0  0  0  0  0  0  0  0  0  0  0
    5.3087    0.0047   -0.7183 H   0  0  0  0  0  0  0  0  0  0  0  0
    6.4955   -1.8855   -1.8116 H   0  0  0  0  0  0  0  0  0  0  0  0
    4.9681   -4.5632   -0.2444 H   0  0  0  0  0  0  0  0  0  0  0  0
    5.6473   -6.6126    0.9670 H   0  0  0  0  0  0  0  0  0  0  0  0
    6.8263   -8.4577   -0.2484 H   0  0  0  0  0  0  0  0  0  0  0  0
    7.3112   -8.1883   -2.7064 H   0  0  0  0  0  0  0  0  0  0  0  0
    7.1369   -5.9225   -6.6539 H   0  0  0  0  0  0  0  0  0  0  0  0
    6.4732   -3.9617   -8.0897 H   0  0  0  0  0  0  0  0  0  0  0  0
    5.2714   -2.0342   -7.0332 H   0  0  0  0  0  0  0  0  0  0  0  0
    4.7539   -2.0686   -4.6142 H   0  0  0  0  0  0  0  0  0  0  0  0
    2.7377   -3.8492   -2.5452 H   0  0  0  0  0  0  0  0  0  0  0  0
    1.5313   -1.9307   -1.4660 H   0  0  0  0  0  0  0  0  0  0  0  0
    1.9179    2.8425   -0.1198 H   0  0  0  0  0  0  0  0  0  0  0  0
    2.8169    4.4914    1.5387 H   0  0  0  0  0  0  0  0  0  0  0  0
    4.5271    3.7484    3.2123 H   0  0  0  0  0  0  0  0  0  0  0  0
    3.5641   -0.5672    3.8298 H   0  0  0  0  0  0  0  0  0  0  0  0
    3.7628   -2.7771    4.9451 H   0  0  0  0  0  0  0  0  0  0  0  0
    6.9309   -3.9030    3.5337 H   0  0  0  0  0  0  0  0  0  0  0  0
    7.9220   -5.8856    2.4368 H   0  0  0  0  0  0  0  0  0  0  0  0
    8.0930   -8.0555    3.6775 H   0  0  0  0  0  0  0  0  0  0  0  0
    7.2259   -8.1832    6.0396 H   0  0  0  0  0  0  0  0  0  0  0  0
    5.3259   -6.3936    9.7682 H   0  0  0  0  0  0  0  0  0  0  0  0
    4.3573   -4.4879   11.1013 H   0  0  0  0  0  0  0  0  0  0  0  0
    4.1689   -2.2302   10.0318 H   0  0  0  0  0  0  0  0  0  0  0  0
    4.9145   -1.8958    7.6979 H   0  0  0  0  0  0  0  0  0  0  0  0
    7.9206   -2.0167    5.7579 H   0  0  0  0  0  0  0  0  0  0  0  0
    7.7215    0.2229    4.6454 H   0  0  0  0  0  0  0  0  0  0  0  0
    4.4208   -0.2250    1.5653 H   0  0  0  0  0  0  0  0  0  0  0  0
  1  2  2  0
  2  3  1  0
  2 23  1  0
  3  4  2  0
  3 22  1  0
  4  5  1  0
  4 51  1  0
  5  6  2  0
  5 52  1  0
  6  7  1  0
  6 21  1  0
  7  8  1  0
  7 20  1  0
  8  9  2  0
  8 13  1  0
  9 10  1  0
  9 53  1  0
 10 11  2  0
 10 54  1  0
 11 12  1  0
 11 55  1  0
 12 13  2  0
 12 56  1  0
 13 14  1  0
 14 15  1  0
 15 16  2  0
 15 20  1  0
 16 17  1  0
 16 57  1  0
 17 18  2  0
 17 58  1  0
 18 19  1  0
 18 59  1  0
 19 20  2  0
 19 60  1  0
 21 22  2  0
 21 61  1  0
 22 62  1  0
 23 24  2  0
 23 50  1  0
 24 25  1  0
 24 63  1  0
 25 26  2  0
 25 64  1  0
 26 27  1  0
 26 65  1  0
 27 28  1  0
 27 50  2  0
 28 29  2  0
 28 30  1  0
 30 31  2  0
 30 49  1  0
 31 32  1  0
 31 66  1  0
 32 33  2  0
 32 67  1  0
 33 34  1  0
 33 48  1  0
 34 35  1  0
 34 47  1  0
 35 36  2  0
 35 40  1  0
 36 37  1  0
 36 68  1  0
 37 38  2  0
 37 69  1  0
 38 39  1  0
 38 70  1  0
 39 40  2  0
 39 71  1  0
 40 41  1  0
 41 42  1  0
 42 43  2  0
 42 47  1  0
 43 44  1  0
 43 72  1  0
 44 45  2  0
 44 73  1  0
 45 46  1  0
 45 74  1  0
 46 47  2  0
 46 75  1  0
 48 49  2  0
 48 76  1  0
 49 77  1  0
 50 78  1  0
M  END

