
     RDKit          3D

 59 62  0  0  0  0  0  0  0  0999 V2000
    0.6633   -0.8696   -0.6794 O   0  0  0  0  0  0  0  0  0  0  0  0
    0.8213    0.3611   -0.7049 C   0  0  0  0  0  0  0  0  0  0  0  0
    0.2952    1.1490    0.3235 N   0  0  0  0  0  0  0  0  0  0  0  0
   -0.5682    0.5381    1.3154 C   0  0  0  0  0  0  0  0  0  0  0  0
    0.2210   -0.1933    2.4219 C   0  0  0  0  0  0  0  0  0  0  0  0
   -0.6771   -0.9158    3.3977 C   0  0  0  0  0  0  0  0  0  0  0  0
   -1.2446   -2.1558    3.0541 C   0  0  0  0  0  0  0  0  0  0  0  0
   -2.1097   -2.8180    3.9286 C   0  0  0  0  0  0  0  0  0  0  0  0
   -2.4257   -2.2530    5.1689 C   0  0  0  0  0  0  0  0  0  0  0  0
   -1.8689   -1.0216    5.5251 C   0  0  0  0  0  0  0  0  0  0  0  0
   -1.0052   -0.3613    4.6452 C   0  0  0  0  0  0  0  0  0  0  0  0
    1.5503    1.0608   -1.7534 C   0  0  0  0  0  0  0  0  0  0  0  0
    1.8911    2.4711   -1.7494 C   0  0  0  0  0  0  0  0  0  0  0  0
    2.5557    3.0015   -2.8452 C   0  0  0  0  0  0  0  0  0  0  0  0
    2.8738    2.1394   -3.8975 C   0  0  0  0  0  0  0  0  0  0  0  0
    3.5637    2.6020   -5.0958 N   0  0  0  0  0  0  0  0  0  0  0  0
    5.0063    2.6076   -5.1008 C   0  0  0  0  0  0  0  0  0  0  0  0
    5.6755    2.7311   -6.4705 C   0  0  0  0  0  0  0  0  0  0  0  0
    4.9348    3.6834   -7.4217 C   0  0  2  0  0  0  0  0  0  0  0  0
    5.0091    5.1762   -7.0158 C   0  0  0  0  0  0  0  0  0  0  0  0
    6.4136    5.7417   -6.9720 C   0  0  0  0  0  0  0  0  0  0  0  0
    7.1350    5.9552   -8.1593 C   0  0  0  0  0  0  0  0  0  0  0  0
    8.4366    6.4601   -8.1284 C   0  0  0  0  0  0  0  0  0  0  0  0
    9.0442    6.7638   -6.9054 C   0  0  0  0  0  0  0  0  0  0  0  0
    8.3381    6.5630   -5.7171 C   0  0  0  0  0  0  0  0  0  0  0  0
    7.0344    6.0571   -5.7535 C   0  0  0  0  0  0  0  0  0  0  0  0
    3.4905    3.1758   -7.5513 C   0  0  0  0  0  0  0  0  0  0  0  0
    2.7675    3.0623   -6.2069 C   0  0  0  0  0  0  0  0  0  0  0  0
    2.6186    0.8017   -3.9274 N   0  0  0  0  0  0  0  0  0  0  0  0
    1.9873    0.3075   -2.8819 C   0  0  0  0  0  0  0  0  0  0  0  0
    0.1324    2.1259    0.1163 H   0  0  0  0  0  0  0  0  0  0  0  0
   -1.2441   -0.1897    0.8336 H   0  0  0  0  0  0  0  0  0  0  0  0
   -1.1937    1.3254    1.7668 H   0  0  0  0  0  0  0  0  0  0  0  0
    0.8567    0.5369    2.9492 H   0  0  0  0  0  0  0  0  0  0  0  0
    0.8860   -0.9108    1.9184 H   0  0  0  0  0  0  0  0  0  0  0  0
   -0.9957   -2.6029    2.0870 H   0  0  0  0  0  0  0  0  0  0  0  0
   -2.5369   -3.7831    3.6425 H   0  0  0  0  0  0  0  0  0  0  0  0
   -3.0999   -2.7722    5.8554 H   0  0  0  0  0  0  0  0  0  0  0  0
   -2.1059   -0.5728    6.4939 H   0  0  0  0  0  0  0  0  0  0  0  0
   -0.5705    0.6010    4.9331 H   0  0  0  0  0  0  0  0  0  0  0  0
    1.6895    3.1050   -0.8853 H   0  0  0  0  0  0  0  0  0  0  0  0
    2.8342    4.0591   -2.8718 H   0  0  0  0  0  0  0  0  0  0  0  0
    5.3145    1.6974   -4.5615 H   0  0  0  0  0  0  0  0  0  0  0  0
    5.2973    3.4402   -4.4255 H   0  0  0  0  0  0  0  0  0  0  0  0
    5.7148    1.7319   -6.9337 H   0  0  0  0  0  0  0  0  0  0  0  0
    6.7180    3.0480   -6.3187 H   0  0  0  0  0  0  0  0  0  0  0  0
    5.4091    3.5929   -8.4125 H   0  0  0  0  0  0  0  0  0  0  0  0
    4.5291    5.3375   -6.0358 H   0  0  0  0  0  0  0  0  0  0  0  0
    4.4078    5.7489   -7.7430 H   0  0  0  0  0  0  0  0  0  0  0  0
    6.6681    5.7328   -9.1238 H   0  0  0  0  0  0  0  0  0  0  0  0
    8.9780    6.6231   -9.0638 H   0  0  0  0  0  0  0  0  0  0  0  0
   10.0618    7.1612   -6.8806 H   0  0  0  0  0  0  0  0  0  0  0  0
    8.7999    6.8050   -4.7566 H   0  0  0  0  0  0  0  0  0  0  0  0
    6.4865    5.9193   -4.8162 H   0  0  0  0  0  0  0  0  0  0  0  0
    3.5054    2.1814   -8.0263 H   0  0  0  0  0  0  0  0  0  0  0  0
    2.8936    3.8268   -8.2092 H   0  0  0  0  0  0  0  0  0  0  0  0
    1.8947    2.3916   -6.2536 H   0  0  0  0  0  0  0  0  0  0  0  0
    2.3495    4.0380   -5.8790 H   0  0  0  0  0  0  0  0  0  0  0  0
    1.7763   -0.7671   -2.8803 H   0  0  0  0  0  0  0  0  0  0  0  0
  1  2  2  0
  2  3  1  0
  2 12  1  0
  3  4  1  0
  3 31  1  0
  4  5  1  0
  4 32  1  0
  4 33  1  0
  5  6  1  0
  5 34  1  0
  5 35  1  0
  6  7  2  0
  6 11  1  0
  7  8  1  0
  7 36  1  0
  8  9  2  0
  8 37  1  0
  9 10  1  0
  9 38  1  0
 10 11  2  0
 10 39  1  0
 11 40  1  0
 12 13  2  0
 12 30  1  0
 13 14  1  0
 13 41  1  0
 14 15  2  0
 14 42  1  0
 15 16  1  0
 15 29  1  0
 16 17  1  0
 16 28  1  0
 17 18  1  0
 17 43  1  0
 17 44  1  0
 18 19  1  0
 18 45  1  0
 18 46  1  0
 19 20  1  0
 19 27  1  0
 19 47  1  6
 20 21  1  0
 20 48  1  0
 20 49  1  0
 21 22  2  0
 21 26  1  0
 22 23  1  0
 22 50  1  0
 23 24  2  0
 23 51  1  0
 24 25  1  0
 24 52  1  0
 25 26  2  0
 25 53  1  0
 26 54  1  0
 27 28  1  0
 27 55  1  0
 27 56  1  0
 28 57  1  0
 28 58  1  0
 29 30  2  0
 30 59  1  0
M  END

