
     RDKit          3D

143152  0  0  0  0  0  0  0  0999 V2000
    3.6092    0.6747   -1.6856 C   0  0  0  0  0  0  0  0  0  0  0  0
    2.8064    0.7812   -0.3765 C   0  0  1  0  0  0  0  0  0  0  0  0
    1.3409    1.1214   -0.7338 C   0  0  0  0  0  0  0  0  0  0  0  0
    2.8547   -0.5924    0.3330 C   0  0  0  0  0  0  0  0  0  0  0  0
    3.3715    1.8608    0.5665 C   0  0  0  0  0  0  0  0  0  0  0  0
    4.5037    2.6317    0.2592 C   0  0  0  0  0  0  0  0  0  0  0  0
    4.9926    3.6002    1.1422 C   0  0  0  0  0  0  0  0  0  0  0  0
    4.3749    3.8349    2.3770 C   0  0  0  0  0  0  0  0  0  0  0  0
    4.8945    4.8719    3.3270 C   0  0  0  0  0  0  0  0  0  0  0  0
    4.8311    6.2374    2.9754 C   0  0  0  0  0  0  0  0  0  0  0  0
    4.2665    6.6928    1.6653 C   0  0  0  0  0  0  0  0  0  0  0  0
    5.0988    7.2728    0.6942 C   0  0  0  0  0  0  0  0  0  0  0  0
    4.5567    7.7034   -0.5190 C   0  0  0  0  0  0  0  0  0  0  0  0
    3.1910    7.5837   -0.7719 C   0  0  0  0  0  0  0  0  0  0  0  0
    2.3434    7.0081    0.1918 C   0  0  0  0  0  0  0  0  0  0  0  0
    0.9492    6.8892   -0.0476 N   0  0  0  0  0  0  0  0  0  0  0  0
    0.4839    6.4687   -1.3204 C   0  0  0  0  0  0  0  0  0  0  0  0
    1.1280    5.4224   -2.0078 C   0  0  0  0  0  0  0  0  0  0  0  0
    0.6752    5.0185   -3.2650 C   0  0  0  0  0  0  0  0  0  0  0  0
   -0.4348    5.6326   -3.8541 C   0  0  0  0  0  0  0  0  0  0  0  0
   -1.0829    6.6668   -3.1711 C   0  0  0  0  0  0  0  0  0  0  0  0
   -0.6267    7.0898   -1.9216 C   0  0  0  0  0  0  0  0  0  0  0  0
    0.0242    7.2061    0.9829 C   0  0  0  0  0  0  0  0  0  0  0  0
    0.2322    8.3225    1.8141 C   0  0  0  0  0  0  0  0  0  0  0  0
   -0.6749    8.6239    2.8312 C   0  0  0  0  0  0  0  0  0  0  0  0
   -1.8117    7.8337    3.0295 C   0  0  0  0  0  0  0  0  0  0  0  0
   -2.0266    6.7279    2.2005 C   0  0  0  0  0  0  0  0  0  0  0  0
   -1.1160    6.4083    1.1920 C   0  0  0  0  0  0  0  0  0  0  0  0
    2.8973    6.5573    1.4016 C   0  0  0  0  0  0  0  0  0  0  0  0
    5.2984    7.2035    3.8960 C   0  0  0  0  0  0  0  0  0  0  0  0
    5.2235    8.6016    3.5560 C   0  0  0  0  0  0  0  0  0  0  0  0
    5.1648    9.7339    3.3042 N   0  0  0  0  0  0  0  0  0  0  0  0
    5.8334    6.8353    5.1530 C   0  0  0  0  0  0  0  0  0  0  0  0
    6.3383    7.9078    6.0674 C   0  0  0  0  0  0  0  0  0  0  0  0
    7.7170    8.0859    6.2679 C   0  0  0  0  0  0  0  0  0  0  0  0
    8.1762    9.1448    7.0540 C   0  0  0  0  0  0  0  0  0  0  0  0
    7.2773   10.0280    7.6533 C   0  0  0  0  0  0  0  0  0  0  0  0
    5.8961    9.8598    7.4642 C   0  0  0  0  0  0  0  0  0  0  0  0
    4.9727   10.7731    8.0451 N   0  0  0  0  0  0  0  0  0  0  0  0
    5.1563   12.1639    7.8114 C   0  0  0  0  0  0  0  0  0  0  0  0
    5.4865   12.6284    6.5252 C   0  0  0  0  0  0  0  0  0  0  0  0
    5.6889   13.9919    6.3023 C   0  0  0  0  0  0  0  0  0  0  0  0
    5.5498   14.9128    7.3456 C   0  0  0  0  0  0  0  0  0  0  0  0
    5.2111   14.4544    8.6233 C   0  0  0  0  0  0  0  0  0  0  0  0
    5.0239   13.0917    8.8605 C   0  0  0  0  0  0  0  0  0  0  0  0
    3.8612   10.2937    8.7753 C   0  0  0  0  0  0  0  0  0  0  0  0
    3.9758    9.1398    9.5766 C   0  0  0  0  0  0  0  0  0  0  0  0
    2.8763    8.6602   10.2901 C   0  0  0  0  0  0  0  0  0  0  0  0
    1.6451    9.3215   10.2361 C   0  0  0  0  0  0  0  0  0  0  0  0
    1.5279   10.4707    9.4478 C   0  0  0  0  0  0  0  0  0  0  0  0
    2.6163   10.9510    8.7184 C   0  0  0  0  0  0  0  0  0  0  0  0
    5.4395    8.7973    6.6692 C   0  0  0  0  0  0  0  0  0  0  0  0
    5.9018    5.4694    5.4944 C   0  0  0  0  0  0  0  0  0  0  0  0
    6.4764    5.0679    6.8195 C   0  0  0  0  0  0  0  0  0  0  0  0
    5.8145    5.3710    8.0164 C   0  0  0  0  0  0  0  0  0  0  0  0
    6.3454    4.9919    9.2534 C   0  0  0  0  0  0  0  0  0  0  0  0
    7.5650    4.3043    9.3506 C   0  0  0  0  0  0  0  0  0  0  0  0
    8.1810    3.8704   10.6948 C   0  0  1  0  0  0  0  0  0  0  0  0
    7.3086    4.2812   11.8949 C   0  0  0  0  0  0  0  0  0  0  0  0
    8.3359    2.3318   10.7148 C   0  0  0  0  0  0  0  0  0  0  0  0
    9.5707    4.5280   10.8610 C   0  0  0  0  0  0  0  0  0  0  0  0
    8.2272    4.0136    8.1432 C   0  0  0  0  0  0  0  0  0  0  0  0
    7.6976    4.3806    6.9071 C   0  0  0  0  0  0  0  0  0  0  0  0
    5.4327    4.4894    4.5826 C   0  0  0  0  0  0  0  0  0  0  0  0
    5.5132    3.0381    4.9477 C   0  0  0  0  0  0  0  0  0  0  0  0
    4.7636    2.5101    6.0068 C   0  0  0  0  0  0  0  0  0  0  0  0
    4.8406    1.1555    6.3442 C   0  0  0  0  0  0  0  0  0  0  0  0
    5.6771    0.2703    5.6468 C   0  0  0  0  0  0  0  0  0  0  0  0
    5.7939   -1.2267    5.9928 C   0  0  1  0  0  0  0  0  0  0  0  0
    4.8893   -1.6243    7.1731 C   0  0  0  0  0  0  0  0  0  0  0  0
    5.3840   -2.0717    4.7643 C   0  0  0  0  0  0  0  0  0  0  0  0
    7.2567   -1.5519    6.3749 C   0  0  0  0  0  0  0  0  0  0  0  0
    6.4306    0.8109    4.5880 C   0  0  0  0  0  0  0  0  0  0  0  0
    6.3495    2.1583    4.2412 C   0  0  0  0  0  0  0  0  0  0  0  0
    3.2414    3.0678    2.6926 C   0  0  0  0  0  0  0  0  0  0  0  0
    2.7532    2.1095    1.8064 C   0  0  0  0  0  0  0  0  0  0  0  0
    3.1702   -0.1029   -2.3304 H   0  0  0  0  0  0  0  0  0  0  0  0
    4.6593    0.3976   -1.5030 H   0  0  0  0  0  0  0  0  0  0  0  0
    3.5987    1.6190   -2.2522 H   0  0  0  0  0  0  0  0  0  0  0  0
    0.9201    0.3534   -1.4037 H   0  0  0  0  0  0  0  0  0  0  0  0
    1.2711    2.0946   -1.2452 H   0  0  0  0  0  0  0  0  0  0  0  0
    0.7000    1.1692    0.1597 H   0  0  0  0  0  0  0  0  0  0  0  0
    2.4523   -1.3804   -0.3250 H   0  0  0  0  0  0  0  0  0  0  0  0
    2.2608   -0.5964    1.2597 H   0  0  0  0  0  0  0  0  0  0  0  0
    3.8888   -0.8644    0.5978 H   0  0  0  0  0  0  0  0  0  0  0  0
    5.0298    2.4873   -0.6848 H   0  0  0  0  0  0  0  0  0  0  0  0
    5.8743    4.1808    0.8610 H   0  0  0  0  0  0  0  0  0  0  0  0
    6.1672    7.3871    0.8892 H   0  0  0  0  0  0  0  0  0  0  0  0
    5.2055    8.1582   -1.2718 H   0  0  0  0  0  0  0  0  0  0  0  0
    2.7716    7.9414   -1.7138 H   0  0  0  0  0  0  0  0  0  0  0  0
    1.9860    4.9277   -1.5486 H   0  0  0  0  0  0  0  0  0  0  0  0
    1.1899    4.2047   -3.7831 H   0  0  0  0  0  0  0  0  0  0  0  0
   -0.7905    5.3094   -4.8353 H   0  0  0  0  0  0  0  0  0  0  0  0
   -1.9471    7.1629   -3.6209 H   0  0  0  0  0  0  0  0  0  0  0  0
   -1.1302    7.9075   -1.4026 H   0  0  0  0  0  0  0  0  0  0  0  0
    1.1107    8.9521    1.6607 H   0  0  0  0  0  0  0  0  0  0  0  0
   -0.4948    9.4950    3.4667 H   0  0  0  0  0  0  0  0  0  0  0  0
   -2.5228    8.0770    3.8225 H   0  0  0  0  0  0  0  0  0  0  0  0
   -2.9068    6.0962    2.3470 H   0  0  0  0  0  0  0  0  0  0  0  0
   -1.2833    5.5356    0.5581 H   0  0  0  0  0  0  0  0  0  0  0  0
    2.2457    6.0994    2.1468 H   0  0  0  0  0  0  0  0  0  0  0  0
    8.4267    7.4022    5.7980 H   0  0  0  0  0  0  0  0  0  0  0  0
    9.2499    9.2824    7.2048 H   0  0  0  0  0  0  0  0  0  0  0  0
    7.6375   10.8559    8.2672 H   0  0  0  0  0  0  0  0  0  0  0  0
    5.5747   11.9180    5.7002 H   0  0  0  0  0  0  0  0  0  0  0  0
    5.9437   14.3366    5.2967 H   0  0  0  0  0  0  0  0  0  0  0  0
    5.7026   15.9795    7.1648 H   0  0  0  0  0  0  0  0  0  0  0  0
    5.1048   15.1626    9.4494 H   0  0  0  0  0  0  0  0  0  0  0  0
    4.7740   12.7365    9.8623 H   0  0  0  0  0  0  0  0  0  0  0  0
    4.9354    8.6233    9.6393 H   0  0  0  0  0  0  0  0  0  0  0  0
    2.9896    7.7650   10.9078 H   0  0  0  0  0  0  0  0  0  0  0  0
    0.7887    8.9465   10.8012 H   0  0  0  0  0  0  0  0  0  0  0  0
    0.5714   10.9969    9.3865 H   0  0  0  0  0  0  0  0  0  0  0  0
    2.5056   11.8397    8.0951 H   0  0  0  0  0  0  0  0  0  0  0  0
    4.3663    8.6816    6.5069 H   0  0  0  0  0  0  0  0  0  0  0  0
    4.8640    5.9092    7.9867 H   0  0  0  0  0  0  0  0  0  0  0  0
    5.7835    5.2464   10.1523 H   0  0  0  0  0  0  0  0  0  0  0  0
    6.3097    3.8191   11.8551 H   0  0  0  0  0  0  0  0  0  0  0  0
    7.1788    5.3732   11.9542 H   0  0  0  0  0  0  0  0  0  0  0  0
    7.7860    3.9543   12.8322 H   0  0  0  0  0  0  0  0  0  0  0  0
    7.3588    1.8354   10.6029 H   0  0  0  0  0  0  0  0  0  0  0  0
    8.7793    2.0018   11.6688 H   0  0  0  0  0  0  0  0  0  0  0  0
    8.9873    1.9737    9.9031 H   0  0  0  0  0  0  0  0  0  0  0  0
    9.4910    5.6267   10.8561 H   0  0  0  0  0  0  0  0  0  0  0  0
   10.2614    4.2391   10.0543 H   0  0  0  0  0  0  0  0  0  0  0  0
   10.0283    4.2232   11.8167 H   0  0  0  0  0  0  0  0  0  0  0  0
    9.1821    3.4829    8.1600 H   0  0  0  0  0  0  0  0  0  0  0  0
    8.2417    4.1283    5.9939 H   0  0  0  0  0  0  0  0  0  0  0  0
    4.1042    3.1654    6.5802 H   0  0  0  0  0  0  0  0  0  0  0  0
    4.2299    0.7988    7.1737 H   0  0  0  0  0  0  0  0  0  0  0  0
    3.8252   -1.4420    6.9552 H   0  0  0  0  0  0  0  0  0  0  0  0
    5.1490   -1.0777    8.0932 H   0  0  0  0  0  0  0  0  0  0  0  0
    5.0033   -2.6992    7.3846 H   0  0  0  0  0  0  0  0  0  0  0  0
    4.3431   -1.8623    4.4706 H   0  0  0  0  0  0  0  0  0  0  0  0
    5.4646   -3.1475    4.9924 H   0  0  0  0  0  0  0  0  0  0  0  0
    6.0242   -1.8674    3.8926 H   0  0  0  0  0  0  0  0  0  0  0  0
    7.5751   -0.9647    7.2509 H   0  0  0  0  0  0  0  0  0  0  0  0
    7.9550   -1.3320    5.5530 H   0  0  0  0  0  0  0  0  0  0  0  0
    7.3618   -2.6208    6.6243 H   0  0  0  0  0  0  0  0  0  0  0  0
    7.1004    0.1679    4.0122 H   0  0  0  0  0  0  0  0  0  0  0  0
    6.9477    2.5348    3.4083 H   0  0  0  0  0  0  0  0  0  0  0  0
    2.7321    3.2245    3.6461 H   0  0  0  0  0  0  0  0  0  0  0  0
    1.8657    1.5425    2.0969 H   0  0  0  0  0  0  0  0  0  0  0  0
  2  1  1  6
  1 77  1  0
  1 78  1  0
  1 79  1  0
  2  3  1  0
  2  4  1  0
  2  5  1  0
  3 80  1  0
  3 81  1  0
  3 82  1  0
  4 83  1  0
  4 84  1  0
  4 85  1  0
  5  6  2  0
  5 76  1  0
  6  7  1  0
  6 86  1  0
  7  8  2  0
  7 87  1  0
  8  9  1  0
  8 75  1  0
  9 10  1  0
  9 64  2  0
 10 11  1  0
 10 30  2  0
 11 12  2  0
 11 29  1  0
 12 13  1  0
 12 88  1  0
 13 14  2  0
 13 89  1  0
 14 15  1  0
 14 90  1  0
 15 16  1  0
 15 29  2  0
 16 17  1  0
 16 23  1  0
 17 18  2  0
 17 22  1  0
 18 19  1  0
 18 91  1  0
 19 20  2  0
 19 92  1  0
 20 21  1  0
 20 93  1  0
 21 22  2  0
 21 94  1  0
 22 95  1  0
 23 24  2  0
 23 28  1  0
 24 25  1  0
 24 96  1  0
 25 26  2  0
 25 97  1  0
 26 27  1  0
 26 98  1  0
 27 28  2  0
 27 99  1  0
 28100  1  0
 29101  1  0
 30 31  1  0
 30 33  1  0
 31 32  3  0
 33 34  1  0
 33 53  2  0
 34 35  2  0
 34 52  1  0
 35 36  1  0
 35102  1  0
 36 37  2  0
 36103  1  0
 37 38  1  0
 37104  1  0
 38 39  1  0
 38 52  2  0
 39 40  1  0
 39 46  1  0
 40 41  2  0
 40 45  1  0
 41 42  1  0
 41105  1  0
 42 43  2  0
 42106  1  0
 43 44  1  0
 43107  1  0
 44 45  2  0
 44108  1  0
 45109  1  0
 46 47  2  0
 46 51  1  0
 47 48  1  0
 47110  1  0
 48 49  2  0
 48111  1  0
 49 50  1  0
 49112  1  0
 50 51  2  0
 50113  1  0
 51114  1  0
 52115  1  0
 53 54  1  0
 53 64  1  0
 54 55  2  0
 54 63  1  0
 55 56  1  0
 55116  1  0
 56 57  2  0
 56117  1  0
 57 58  1  0
 57 62  1  0
 58 59  1  1
 58 60  1  0
 58 61  1  0
 59118  1  0
 59119  1  0
 59120  1  0
 60121  1  0
 60122  1  0
 60123  1  0
 61124  1  0
 61125  1  0
 61126  1  0
 62 63  2  0
 62127  1  0
 63128  1  0
 64 65  1  0
 65 66  2  0
 65 74  1  0
 66 67  1  0
 66129  1  0
 67 68  2  0
 67130  1  0
 68 69  1  0
 68 73  1  0
 69 70  1  1
 69 71  1  0
 69 72  1  0
 70131  1  0
 70132  1  0
 70133  1  0
 71134  1  0
 71135  1  0
 71136  1  0
 72137  1  0
 72138  1  0
 72139  1  0
 73 74  2  0
 73140  1  0
 74141  1  0
 75 76  2  0
 75142  1  0
 76143  1  0
M  END

