
     RDKit          3D

 36 38  0  0  0  0  0  0  0  0999 V2000
    2.0983    0.9736    0.0987 C   0  0  0  0  0  0  0  0  0  0  0  0
    2.1439   -0.3472    0.5663 C   0  0  0  0  0  0  0  0  0  0  0  0
    0.9885   -1.1926    0.5959 C   0  0  0  0  0  0  0  0  0  0  0  0
   -0.2298   -0.6228    0.0482 C   0  0  0  0  0  0  0  0  0  0  0  0
   -0.2764    0.6984   -0.4078 C   0  0  0  0  0  0  0  0  0  0  0  0
    0.8610    1.5473   -0.4020 C   0  0  0  0  0  0  0  0  0  0  0  0
   -1.6851    1.0659   -0.8237 C   0  0  0  0  0  0  0  0  0  0  0  0
   -2.4306   -0.2894   -0.8446 C   0  0  0  0  0  0  0  0  0  0  0  0
   -1.5928   -1.2538    0.0414 C   0  0  2  0  0  0  0  0  0  0  0  0
   -2.0973   -1.3951    1.4293 N   0  0  0  0  0  0  0  0  0  0  0  0
   -3.2197   -2.1573    1.8067 C   0  0  0  0  0  0  0  0  0  0  0  0
   -2.8360   -3.3757    2.6688 C   0  0  1  0  0  0  0  0  0  0  0  0
   -2.1623   -3.1076    4.0392 C   0  0  0  0  0  0  0  0  0  0  0  0
   -2.5816   -4.2919    4.9628 C   0  0  0  0  0  0  0  0  0  0  0  0
   -3.6085   -5.1125    4.1379 C   0  0  0  0  0  0  0  0  0  0  0  0
   -3.9649   -4.2137    3.0625 N   0  0  0  0  0  0  0  0  0  0  0  0
    3.0076    1.5838    0.1157 H   0  0  0  0  0  0  0  0  0  0  0  0
    3.1013   -0.7462    0.9257 H   0  0  0  0  0  0  0  0  0  0  0  0
    1.0703   -2.2549    0.8381 H   0  0  0  0  0  0  0  0  0  0  0  0
    0.8191    2.5675   -0.7875 H   0  0  0  0  0  0  0  0  0  0  0  0
   -1.7202    1.5703   -1.8067 H   0  0  0  0  0  0  0  0  0  0  0  0
   -2.1411    1.7760   -0.1054 H   0  0  0  0  0  0  0  0  0  0  0  0
   -2.4569   -0.6898   -1.8727 H   0  0  0  0  0  0  0  0  0  0  0  0
   -3.4790   -0.2117   -0.5043 H   0  0  0  0  0  0  0  0  0  0  0  0
   -1.5916   -2.2759   -0.4006 H   0  0  0  0  0  0  0  0  0  0  0  0
   -1.5517   -0.9157    2.1338 H   0  0  0  0  0  0  0  0  0  0  0  0
   -3.7134   -2.5287    0.8918 H   0  0  0  0  0  0  0  0  0  0  0  0
   -4.0050   -1.5901    2.3690 H   0  0  0  0  0  0  0  0  0  0  0  0
   -2.1788   -4.0498    2.0914 H   0  0  0  0  0  0  0  0  0  0  0  0
   -2.5294   -2.1540    4.4464 H   0  0  0  0  0  0  0  0  0  0  0  0
   -1.0808   -3.0157    3.9057 H   0  0  0  0  0  0  0  0  0  0  0  0
   -3.0568   -3.9214    5.8811 H   0  0  0  0  0  0  0  0  0  0  0  0
   -1.7389   -4.9248    5.2648 H   0  0  0  0  0  0  0  0  0  0  0  0
   -4.4967   -5.4691    4.6734 H   0  0  0  0  0  0  0  0  0  0  0  0
   -3.1300   -5.9854    3.6603 H   0  0  0  0  0  0  0  0  0  0  0  0
   -4.9261   -3.8967    2.9223 H   0  0  0  0  0  0  0  0  0  0  0  0
  1  2  2  0
  1  6  1  0
  1 17  1  0
  2  3  1  0
  2 18  1  0
  3  4  2  0
  3 19  1  0
  4  5  1  0
  4  9  1  0
  5  6  2  0
  5  7  1  0
  6 20  1  0
  7  8  1  0
  7 21  1  0
  7 22  1  0
  8  9  1  0
  8 23  1  0
  8 24  1  0
  9 10  1  0
  9 25  1  6
 10 11  1  0
 10 26  1  0
 11 12  1  0
 11 27  1  0
 11 28  1  0
 12 13  1  0
 12 16  1  0
 12 29  1  6
 13 14  1  0
 13 30  1  0
 13 31  1  0
 14 15  1  0
 14 32  1  0
 14 33  1  0
 15 16  1  0
 15 34  1  0
 15 35  1  0
 16 36  1  0
M  END

