
     RDKit          3D

 78 86  0  0  0  0  0  0  0  0999 V2000
   -0.1980    1.3528    2.0639 C   0  0  0  0  0  0  0  0  0  0  0  0
    0.4425    2.3442    1.3091 C   0  0  0  0  0  0  0  0  0  0  0  0
    1.5301    2.0242    0.4998 C   0  0  0  0  0  0  0  0  0  0  0  0
    1.9919    0.6953    0.4257 C   0  0  0  0  0  0  0  0  0  0  0  0
    3.1281    0.4145   -0.3577 N   0  0  0  0  0  0  0  0  0  0  0  0
    4.1218    1.3455   -0.4142 N   0  0  0  0  0  0  0  0  0  0  0  0
    5.0862    0.7104   -1.0686 C   0  0  0  0  0  0  0  0  0  0  0  0
    6.3697    1.3533   -1.3258 C   0  0  0  0  0  0  0  0  0  0  0  0
    6.6192    2.6859   -0.9122 C   0  0  0  0  0  0  0  0  0  0  0  0
    7.8371    3.2832   -1.1666 C   0  0  0  0  0  0  0  0  0  0  0  0
    8.8855    2.5831   -1.8342 C   0  0  0  0  0  0  0  0  0  0  0  0
   10.1717    3.2144   -2.0948 C   0  0  0  0  0  0  0  0  0  0  0  0
   11.3286    2.4318   -2.4058 C   0  0  0  0  0  0  0  0  0  0  0  0
   12.5593    3.0128   -2.6484 C   0  0  0  0  0  0  0  0  0  0  0  0
   12.6790    4.4160   -2.5968 C   0  0  0  0  0  0  0  0  0  0  0  0
   11.5449    5.2183   -2.2925 C   0  0  0  0  0  0  0  0  0  0  0  0
   10.3219    4.6328   -2.0472 C   0  0  0  0  0  0  0  0  0  0  0  0
   11.9090    6.7136   -2.3321 C   0  0  1  0  0  0  0  0  0  0  0  0
   11.0640    7.3809   -3.4415 C   0  0  0  0  0  0  0  0  0  0  0  0
    9.7638    7.8371   -3.1617 C   0  0  0  0  0  0  0  0  0  0  0  0
    8.9524    8.3579   -4.1722 C   0  0  0  0  0  0  0  0  0  0  0  0
    9.4242    8.4343   -5.4861 C   0  0  0  0  0  0  0  0  0  0  0  0
   10.7128    7.9831   -5.7773 C   0  0  0  0  0  0  0  0  0  0  0  0
   11.5236    7.4593   -4.7650 C   0  0  0  0  0  0  0  0  0  0  0  0
   11.7722    7.4161   -0.9625 C   0  0  0  0  0  0  0  0  0  0  0  0
   11.7850    6.6916    0.2394 C   0  0  0  0  0  0  0  0  0  0  0  0
   11.7483    7.3472    1.4743 C   0  0  0  0  0  0  0  0  0  0  0  0
   11.7039    8.7415    1.5313 C   0  0  0  0  0  0  0  0  0  0  0  0
   11.6981    9.4754    0.3416 C   0  0  0  0  0  0  0  0  0  0  0  0
   11.7322    8.8197   -0.8911 C   0  0  0  0  0  0  0  0  0  0  0  0
   13.4052    6.6258   -2.6783 C   0  0  0  0  0  0  0  0  0  0  0  0
   14.3279    7.6551   -2.8336 C   0  0  0  0  0  0  0  0  0  0  0  0
   15.6581    7.3348   -3.1360 C   0  0  0  0  0  0  0  0  0  0  0  0
   16.0711    5.9975   -3.2768 C   0  0  0  0  0  0  0  0  0  0  0  0
   15.1579    4.9593   -3.1175 C   0  0  0  0  0  0  0  0  0  0  0  0
   13.8211    5.2775   -2.8163 C   0  0  0  0  0  0  0  0  0  0  0  0
    8.6193    1.2410   -2.2356 C   0  0  0  0  0  0  0  0  0  0  0  0
    7.3964    0.6457   -1.9963 C   0  0  0  0  0  0  0  0  0  0  0  0
    4.8101   -0.5457   -1.4663 N   0  0  0  0  0  0  0  0  0  0  0  0
    3.5409   -0.7513   -1.0627 C   0  0  0  0  0  0  0  0  0  0  0  0
    2.7498   -1.8944   -1.4151 C   0  0  0  0  0  0  0  0  0  0  0  0
    3.3807   -3.0258   -2.0243 C   0  0  0  0  0  0  0  0  0  0  0  0
    2.6130   -4.1061   -2.4039 C   0  0  0  0  0  0  0  0  0  0  0  0
    1.2096   -4.0715   -2.1857 C   0  0  0  0  0  0  0  0  0  0  0  0
    0.6812   -2.9202   -1.5860 C   0  0  0  0  0  0  0  0  0  0  0  0
    1.3902   -1.8652   -1.2100 N   0  0  0  0  0  0  0  0  0  0  0  0
    1.3584   -0.3009    1.1950 C   0  0  0  0  0  0  0  0  0  0  0  0
    0.2731    0.0364    2.0024 C   0  0  0  0  0  0  0  0  0  0  0  0
   -1.0528    1.6049    2.6966 H   0  0  0  0  0  0  0  0  0  0  0  0
    0.0865    3.3776    1.3465 H   0  0  0  0  0  0  0  0  0  0  0  0
    2.0362    2.7893   -0.0890 H   0  0  0  0  0  0  0  0  0  0  0  0
    5.8280    3.2176   -0.3828 H   0  0  0  0  0  0  0  0  0  0  0  0
    8.0031    4.3010   -0.8122 H   0  0  0  0  0  0  0  0  0  0  0  0
   11.2493    1.3456   -2.4253 H   0  0  0  0  0  0  0  0  0  0  0  0
   13.4257    2.3873   -2.8725 H   0  0  0  0  0  0  0  0  0  0  0  0
    9.4547    5.2604   -1.8478 H   0  0  0  0  0  0  0  0  0  0  0  0
    9.3820    7.7993   -2.1394 H   0  0  0  0  0  0  0  0  0  0  0  0
    7.9462    8.7081   -3.9292 H   0  0  0  0  0  0  0  0  0  0  0  0
    8.7906    8.8439   -6.2763 H   0  0  0  0  0  0  0  0  0  0  0  0
   11.0951    8.0360   -6.7997 H   0  0  0  0  0  0  0  0  0  0  0  0
   12.5249    7.1069   -5.0184 H   0  0  0  0  0  0  0  0  0  0  0  0
   11.8258    5.6012    0.2218 H   0  0  0  0  0  0  0  0  0  0  0  0
   11.7538    6.7597    2.3958 H   0  0  0  0  0  0  0  0  0  0  0  0
   11.6719    9.2537    2.4959 H   0  0  0  0  0  0  0  0  0  0  0  0
   11.6619   10.5674    0.3706 H   0  0  0  0  0  0  0  0  0  0  0  0
   11.7130    9.4103   -1.8092 H   0  0  0  0  0  0  0  0  0  0  0  0
   14.0278    8.6986   -2.7227 H   0  0  0  0  0  0  0  0  0  0  0  0
   16.3882    8.1378   -3.2625 H   0  0  0  0  0  0  0  0  0  0  0  0
   17.1149    5.7759   -3.5097 H   0  0  0  0  0  0  0  0  0  0  0  0
   15.4748    3.9192   -3.2219 H   0  0  0  0  0  0  0  0  0  0  0  0
    9.3772    0.6746   -2.7776 H   0  0  0  0  0  0  0  0  0  0  0  0
    7.1828   -0.3734   -2.3197 H   0  0  0  0  0  0  0  0  0  0  0  0
    4.4604   -3.0101   -2.1774 H   0  0  0  0  0  0  0  0  0  0  0  0
    3.0816   -4.9789   -2.8673 H   0  0  0  0  0  0  0  0  0  0  0  0
    0.5611   -4.9009   -2.4728 H   0  0  0  0  0  0  0  0  0  0  0  0
   -0.4015   -2.8570   -1.4045 H   0  0  0  0  0  0  0  0  0  0  0  0
    1.7236   -1.3241    1.1641 H   0  0  0  0  0  0  0  0  0  0  0  0
   -0.2089   -0.7447    2.5967 H   0  0  0  0  0  0  0  0  0  0  0  0
  1  2  2  0
  1 48  1  0
  1 49  1  0
  2  3  1  0
  2 50  1  0
  3  4  2  0
  3 51  1  0
  4  5  1  0
  4 47  1  0
  5  6  1  0
  5 40  1  0
  6  7  2  0
  7  8  1  0
  7 39  1  0
  8  9  2  0
  8 38  1  0
  9 10  1  0
  9 52  1  0
 10 11  2  0
 10 53  1  0
 11 12  1  0
 11 37  1  0
 12 13  2  0
 12 17  1  0
 13 14  1  0
 13 54  1  0
 14 15  2  0
 14 55  1  0
 15 16  1  0
 15 36  1  0
 16 17  2  0
 16 18  1  0
 17 56  1  0
 18 19  1  6
 18 25  1  0
 18 31  1  0
 19 20  2  0
 19 24  1  0
 20 21  1  0
 20 57  1  0
 21 22  2  0
 21 58  1  0
 22 23  1  0
 22 59  1  0
 23 24  2  0
 23 60  1  0
 24 61  1  0
 25 26  2  0
 25 30  1  0
 26 27  1  0
 26 62  1  0
 27 28  2  0
 27 63  1  0
 28 29  1  0
 28 64  1  0
 29 30  2  0
 29 65  1  0
 30 66  1  0
 31 32  1  0
 31 36  2  0
 32 33  2  0
 32 67  1  0
 33 34  1  0
 33 68  1  0
 34 35  2  0
 34 69  1  0
 35 36  1  0
 35 70  1  0
 37 38  2  0
 37 71  1  0
 38 72  1  0
 39 40  2  0
 40 41  1  0
 41 42  2  0
 41 46  1  0
 42 43  1  0
 42 73  1  0
 43 44  2  0
 43 74  1  0
 44 45  1  0
 44 75  1  0
 45 46  2  0
 45 76  1  0
 47 48  2  0
 47 77  1  0
 48 78  1  0
M  END

