
     RDKit          3D

 50 54  0  0  0  0  0  0  0  0999 V2000
    1.2380    0.0357   -0.5786 C   0  0  0  0  0  0  0  0  0  0  0  0
    2.7456    0.0460   -0.6489 C   0  0  0  0  0  0  0  0  0  0  0  0
    3.4574    1.2118   -0.9678 C   0  0  0  0  0  0  0  0  0  0  0  0
    4.8517    1.2207   -1.0389 C   0  0  0  0  0  0  0  0  0  0  0  0
    5.5749    0.0422   -0.8088 C   0  0  0  0  0  0  0  0  0  0  0  0
    6.9964    0.0336   -0.8729 N   0  0  0  0  0  0  0  0  0  0  0  0
    7.8532   -0.5402    0.0909 C   0  0  0  0  0  0  0  0  0  0  0  0
    7.3661   -1.1925    1.1773 O   0  0  0  0  0  0  0  0  0  0  0  0
    9.1374   -0.3652   -0.3351 C   0  0  0  0  0  0  0  0  0  0  0  0
    9.1001    0.3263   -1.5876 C   0  0  0  0  0  0  0  0  0  0  0  0
    7.7814    0.5779   -1.8871 C   0  0  0  0  0  0  0  0  0  0  0  0
    7.1479    1.1885   -2.9161 O   0  0  0  0  0  0  0  0  0  0  0  0
   10.5154    0.5544   -2.0855 C   0  0  1  0  0  0  0  0  0  0  0  0
   10.7912    2.0646   -2.2709 C   0  0  0  0  0  0  0  0  0  0  0  0
   11.4028    2.7095   -1.4494 O   0  0  0  0  0  0  0  0  0  0  0  0
   10.2199    2.7457   -3.4938 C   0  0  0  0  0  0  0  0  0  0  0  0
    9.7315    2.0569   -4.6203 C   0  0  0  0  0  0  0  0  0  0  0  0
    9.2280    2.7519   -5.7247 C   0  0  0  0  0  0  0  0  0  0  0  0
    9.2136    4.1494   -5.7069 C   0  0  0  0  0  0  0  0  0  0  0  0
    8.5838    5.0222   -7.0791 Cl  0  0  0  0  0  0  0  0  0  0  0  0
    9.7036    4.8561   -4.6009 C   0  0  0  0  0  0  0  0  0  0  0  0
   10.2052    4.1521   -3.5101 C   0  0  0  0  0  0  0  0  0  0  0  0
   11.3364   -0.0481   -1.0478 N   0  0  0  0  0  0  0  0  0  0  0  0
   12.4268   -0.9358   -1.4277 C   0  0  0  0  0  0  0  0  0  0  0  0
   12.5145   -1.9463   -0.2713 C   0  0  0  0  0  0  0  0  0  0  0  0
   11.0547   -2.0742    0.1863 C   0  0  0  0  0  0  0  0  0  0  0  0
   10.5528   -0.6218    0.0800 C   0  0  2  0  0  0  0  0  0  0  0  0
    4.8771   -1.1369   -0.4978 C   0  0  0  0  0  0  0  0  0  0  0  0
    3.4856   -1.1237   -0.4096 C   0  0  0  0  0  0  0  0  0  0  0  0
    0.8231    1.0527   -0.6378 H   0  0  0  0  0  0  0  0  0  0  0  0
    0.8810   -0.4227    0.3581 H   0  0  0  0  0  0  0  0  0  0  0  0
    0.8040   -0.5495   -1.4076 H   0  0  0  0  0  0  0  0  0  0  0  0
    2.9111    2.1403   -1.1565 H   0  0  0  0  0  0  0  0  0  0  0  0
    5.3832    2.1407   -1.2822 H   0  0  0  0  0  0  0  0  0  0  0  0
    6.7937   -0.6011    1.6892 H   0  0  0  0  0  0  0  0  0  0  0  0
    7.7949    1.6881   -3.4359 H   0  0  0  0  0  0  0  0  0  0  0  0
   10.7028    0.0464   -3.0553 H   0  0  0  0  0  0  0  0  0  0  0  0
    9.7526    0.9664   -4.6608 H   0  0  0  0  0  0  0  0  0  0  0  0
    8.8559    2.2160   -6.5994 H   0  0  0  0  0  0  0  0  0  0  0  0
    9.6881    5.9474   -4.6065 H   0  0  0  0  0  0  0  0  0  0  0  0
   10.6027    4.6771   -2.6392 H   0  0  0  0  0  0  0  0  0  0  0  0
   13.3783   -0.3939   -1.5771 H   0  0  0  0  0  0  0  0  0  0  0  0
   12.2049   -1.4634   -2.3825 H   0  0  0  0  0  0  0  0  0  0  0  0
   13.1327   -1.5341    0.5436 H   0  0  0  0  0  0  0  0  0  0  0  0
   12.9662   -2.9013   -0.5805 H   0  0  0  0  0  0  0  0  0  0  0  0
   10.9432   -2.4933    1.1977 H   0  0  0  0  0  0  0  0  0  0  0  0
   10.4892   -2.7145   -0.5111 H   0  0  0  0  0  0  0  0  0  0  0  0
   10.7907   -0.0880    1.0219 H   0  0  0  0  0  0  0  0  0  0  0  0
    5.4314   -2.0587   -0.3190 H   0  0  0  0  0  0  0  0  0  0  0  0
    2.9616   -2.0515   -0.1614 H   0  0  0  0  0  0  0  0  0  0  0  0
  1  2  1  0
  1 30  1  0
  1 31  1  0
  1 32  1  0
  2  3  2  0
  2 29  1  0
  3  4  1  0
  3 33  1  0
  4  5  2  0
  4 34  1  0
  5  6  1  0
  5 28  1  0
  6  7  1  0
  6 11  1  0
  7  8  1  0
  7  9  2  0
  8 35  1  0
  9 10  1  0
  9 27  1  0
 10 11  2  0
 10 13  1  0
 11 12  1  0
 12 36  1  0
 13 14  1  0
 13 23  1  0
 13 37  1  6
 14 15  2  0
 14 16  1  0
 16 17  2  0
 16 22  1  0
 17 18  1  0
 17 38  1  0
 18 19  2  0
 18 39  1  0
 19 20  1  0
 19 21  1  0
 21 22  2  0
 21 40  1  0
 22 41  1  0
 23 24  1  0
 23 27  1  0
 24 25  1  0
 24 42  1  0
 24 43  1  0
 25 26  1  0
 25 44  1  0
 25 45  1  0
 26 27  1  0
 26 46  1  0
 26 47  1  0
 27 48  1  1
 28 29  2  0
 28 49  1  0
 29 50  1  0
M  END

