
     RDKit          3D

 47 49  0  0  0  0  0  0  0  0999 V2000
    1.5668    1.2147    0.1225 C   0  0  0  0  0  0  0  0  0  0  0  0
    2.0059   -0.0838   -0.1859 O   0  0  0  0  0  0  0  0  0  0  0  0
    2.7891   -0.2738   -1.2896 C   0  0  0  0  0  0  0  0  0  0  0  0
    3.2285    0.7522   -2.1341 C   0  0  0  0  0  0  0  0  0  0  0  0
    4.0170    0.4935   -3.2674 C   0  0  0  0  0  0  0  0  0  0  0  0
    4.4016   -0.8381   -3.5763 C   0  0  0  0  0  0  0  0  0  0  0  0
    3.9405   -1.8551   -2.7207 C   0  0  0  0  0  0  0  0  0  0  0  0
    3.1567   -1.5989   -1.5932 C   0  0  0  0  0  0  0  0  0  0  0  0
    2.7059   -2.6639   -0.8542 O   0  0  0  0  0  0  0  0  0  0  0  0
    3.2170   -2.7861    0.4610 C   0  0  0  0  0  0  0  0  0  0  0  0
    5.2298   -1.0869   -4.6912 N   0  0  0  0  0  0  0  0  0  0  0  0
    5.6610   -2.4363   -4.9866 C   0  0  0  0  0  0  0  0  0  0  0  0
    4.7519   -3.2869   -5.8720 C   0  0  0  0  0  0  0  0  0  0  0  0
    5.2825   -4.4206   -6.5106 C   0  0  0  0  0  0  0  0  0  0  0  0
    4.4686   -5.2301   -7.3020 C   0  0  0  0  0  0  0  0  0  0  0  0
    3.1153   -4.9176   -7.4714 C   0  0  0  0  0  0  0  0  0  0  0  0
    2.5619   -3.7900   -6.8506 C   0  0  0  0  0  0  0  0  0  0  0  0
    1.1035   -3.4356   -7.0172 C   0  0  0  0  0  0  0  0  0  0  0  0
    3.3978   -2.9862   -6.0552 C   0  0  0  0  0  0  0  0  0  0  0  0
    5.3209   -0.0454   -5.7215 C   0  0  2  0  0  0  0  0  0  0  0  0
    6.4652   -0.2674   -6.7101 C   0  0  0  0  0  0  0  0  0  0  0  0
    5.4867    1.3144   -5.0277 C   0  0  0  0  0  0  0  0  0  0  0  0
    4.3863    1.5346   -4.1213 N   0  0  0  0  0  0  0  0  0  0  0  0
    0.9429    1.1321    1.0234 H   0  0  0  0  0  0  0  0  0  0  0  0
    0.9585    1.6500   -0.6920 H   0  0  0  0  0  0  0  0  0  0  0  0
    2.4085    1.9003    0.3361 H   0  0  0  0  0  0  0  0  0  0  0  0
    2.9512    1.7881   -1.9326 H   0  0  0  0  0  0  0  0  0  0  0  0
    4.1569   -2.9036   -2.9189 H   0  0  0  0  0  0  0  0  0  0  0  0
    2.7989   -3.7129    0.8810 H   0  0  0  0  0  0  0  0  0  0  0  0
    2.9199   -1.9373    1.0986 H   0  0  0  0  0  0  0  0  0  0  0  0
    4.3209   -2.8641    0.4592 H   0  0  0  0  0  0  0  0  0  0  0  0
    5.8208   -2.9598   -4.0300 H   0  0  0  0  0  0  0  0  0  0  0  0
    6.6584   -2.4051   -5.4504 H   0  0  0  0  0  0  0  0  0  0  0  0
    6.3416   -4.6680   -6.3860 H   0  0  0  0  0  0  0  0  0  0  0  0
    4.8893   -6.1101   -7.7962 H   0  0  0  0  0  0  0  0  0  0  0  0
    2.4836   -5.5566   -8.0950 H   0  0  0  0  0  0  0  0  0  0  0  0
    0.5806   -4.1607   -7.6583 H   0  0  0  0  0  0  0  0  0  0  0  0
    0.9826   -2.4369   -7.4694 H   0  0  0  0  0  0  0  0  0  0  0  0
    0.5861   -3.4099   -6.0437 H   0  0  0  0  0  0  0  0  0  0  0  0
    2.9762   -2.1074   -5.5614 H   0  0  0  0  0  0  0  0  0  0  0  0
    4.3760    0.0021   -6.3022 H   0  0  0  0  0  0  0  0  0  0  0  0
    7.4388   -0.3261   -6.1969 H   0  0  0  0  0  0  0  0  0  0  0  0
    6.5030    0.5795   -7.4124 H   0  0  0  0  0  0  0  0  0  0  0  0
    6.3281   -1.1796   -7.3074 H   0  0  0  0  0  0  0  0  0  0  0  0
    5.4879    2.1112   -5.7895 H   0  0  0  0  0  0  0  0  0  0  0  0
    6.4791    1.3292   -4.5272 H   0  0  0  0  0  0  0  0  0  0  0  0
    4.3296    2.4616   -3.7166 H   0  0  0  0  0  0  0  0  0  0  0  0
  1  2  1  0
  1 24  1  0
  1 25  1  0
  1 26  1  0
  2  3  1  0
  3  4  2  0
  3  8  1  0
  4  5  1  0
  4 27  1  0
  5  6  2  0
  5 23  1  0
  6  7  1  0
  6 11  1  0
  7  8  2  0
  7 28  1  0
  8  9  1  0
  9 10  1  0
 10 29  1  0
 10 30  1  0
 10 31  1  0
 11 12  1  0
 11 20  1  0
 12 13  1  0
 12 32  1  0
 12 33  1  0
 13 14  2  0
 13 19  1  0
 14 15  1  0
 14 34  1  0
 15 16  2  0
 15 35  1  0
 16 17  1  0
 16 36  1  0
 17 18  1  0
 17 19  2  0
 18 37  1  0
 18 38  1  0
 18 39  1  0
 19 40  1  0
 20 21  1  0
 20 22  1  0
 20 41  1  6
 21 42  1  0
 21 43  1  0
 21 44  1  0
 22 23  1  0
 22 45  1  0
 22 46  1  0
 23 47  1  0
M  END

