
     RDKit          3D

 69 71  0  0  0  0  0  0  0  0999 V2000
    8.9570   -0.3603    2.9676 C   0  0  0  0  0  0  0  0  0  0  0  0
    7.6549   -0.0548    2.2289 C   0  0  1  0  0  0  0  0  0  0  0  0
    6.9038    0.9604    2.8667 O   0  0  0  0  0  0  0  0  0  0  0  0
    7.9290    0.3009    0.7520 C   0  0  0  0  0  0  0  0  0  0  0  0
    6.7611    0.8094    0.0384 N   0  0  0  0  0  0  0  0  0  0  0  0
    5.8013   -0.1491   -0.5287 C   0  0  0  0  0  0  0  0  0  0  0  0
    4.7711   -0.6214    0.4419 C   0  0  0  0  0  0  0  0  0  0  0  0
    4.6797   -1.8466    0.9619 N   0  0  0  0  0  0  0  0  0  0  0  0
    3.6300   -1.8281    1.7980 C   0  0  0  0  0  0  0  0  0  0  0  0
    3.0172   -0.5168    1.8307 C   0  0  0  0  0  0  0  0  0  0  0  0
    1.8985   -0.0120    2.5611 C   0  0  0  0  0  0  0  0  0  0  0  0
    1.1876   -0.8761    3.4699 C   0  0  0  0  0  0  0  0  0  0  0  0
    0.1118   -0.4047    4.1927 C   0  0  0  0  0  0  0  0  0  0  0  0
   -0.3421    0.9471    4.0761 C   0  0  0  0  0  0  0  0  0  0  0  0
   -1.5339    1.4659    4.8954 B   0  0  0  0  0  0  0  0  0  0  0  0
   -2.2327    0.7064    5.8180 O   0  0  0  0  0  0  0  0  0  0  0  0
   -3.3998    1.4516    6.2209 C   0  0  2  0  0  0  0  0  0  0  0  0
   -3.6689    1.1810    7.6998 C   0  0  0  0  0  0  0  0  0  0  0  0
   -4.5756    0.9451    5.3740 C   0  0  0  0  0  0  0  0  0  0  0  0
   -2.9819    2.9419    5.8760 C   0  0  2  0  0  0  0  0  0  0  0  0
   -2.2328    3.6370    7.0217 C   0  0  0  0  0  0  0  0  0  0  0  0
   -4.1171    3.8346    5.3788 C   0  0  0  0  0  0  0  0  0  0  0  0
   -2.0367    2.7531    4.8033 O   0  0  0  0  0  0  0  0  0  0  0  0
    0.3681    1.8011    3.1646 C   0  0  0  0  0  0  0  0  0  0  0  0
    1.4444    1.3451    2.4352 C   0  0  0  0  0  0  0  0  0  0  0  0
    3.7818    0.2028    0.9434 N   0  0  0  0  0  0  0  0  0  0  0  0
    3.7082    1.1912    0.7300 H   0  0  0  0  0  0  0  0  0  0  0  0
    6.4739    2.1440    0.1763 C   0  0  0  0  0  0  0  0  0  0  0  0
    7.2155    2.9436    0.7214 O   0  0  0  0  0  0  0  0  0  0  0  0
    5.2732    2.4541   -0.3709 O   0  0  0  0  0  0  0  0  0  0  0  0
    4.8285    3.8545   -0.5281 C   0  0  1  0  0  0  0  0  0  0  0  0
    5.8371    4.6258   -1.3832 C   0  0  0  0  0  0  0  0  0  0  0  0
    3.4967    3.7075   -1.2664 C   0  0  0  0  0  0  0  0  0  0  0  0
    4.6236    4.4944    0.8481 C   0  0  0  0  0  0  0  0  0  0  0  0
    8.7419   -0.6170    4.0153 H   0  0  0  0  0  0  0  0  0  0  0  0
    9.6263    0.5172    2.9612 H   0  0  0  0  0  0  0  0  0  0  0  0
    9.4968   -1.2043    2.5073 H   0  0  0  0  0  0  0  0  0  0  0  0
    7.0101   -0.9500    2.2569 H   0  0  0  0  0  0  0  0  0  0  0  0
    7.3144    1.8162    2.6657 H   0  0  0  0  0  0  0  0  0  0  0  0
    8.3053   -0.5847    0.2162 H   0  0  0  0  0  0  0  0  0  0  0  0
    8.7064    1.0780    0.7018 H   0  0  0  0  0  0  0  0  0  0  0  0
    6.3573   -1.0314   -0.8718 H   0  0  0  0  0  0  0  0  0  0  0  0
    5.3229    0.3229   -1.4007 H   0  0  0  0  0  0  0  0  0  0  0  0
    3.3133   -2.7053    2.3599 H   0  0  0  0  0  0  0  0  0  0  0  0
    1.5090   -1.9141    3.5859 H   0  0  0  0  0  0  0  0  0  0  0  0
   -0.4136   -1.0755    4.8773 H   0  0  0  0  0  0  0  0  0  0  0  0
   -3.9344    0.1217    7.8384 H   0  0  0  0  0  0  0  0  0  0  0  0
   -4.5073    1.7929    8.0693 H   0  0  0  0  0  0  0  0  0  0  0  0
   -2.7844    1.3865    8.3168 H   0  0  0  0  0  0  0  0  0  0  0  0
   -4.6687   -0.1426    5.5122 H   0  0  0  0  0  0  0  0  0  0  0  0
   -4.4076    1.1354    4.3036 H   0  0  0  0  0  0  0  0  0  0  0  0
   -5.5269    1.4143    5.6682 H   0  0  0  0  0  0  0  0  0  0  0  0
   -2.9004    3.8830    7.8615 H   0  0  0  0  0  0  0  0  0  0  0  0
   -1.7944    4.5722    6.6420 H   0  0  0  0  0  0  0  0  0  0  0  0
   -1.4119    3.0095    7.3995 H   0  0  0  0  0  0  0  0  0  0  0  0
   -4.9012    3.9440    6.1450 H   0  0  0  0  0  0  0  0  0  0  0  0
   -4.5734    3.4370    4.4627 H   0  0  0  0  0  0  0  0  0  0  0  0
   -3.7239    4.8368    5.1493 H   0  0  0  0  0  0  0  0  0  0  0  0
    0.0395    2.8376    3.0554 H   0  0  0  0  0  0  0  0  0  0  0  0
    1.9539    2.0315    1.7518 H   0  0  0  0  0  0  0  0  0  0  0  0
    5.9935    4.1172   -2.3474 H   0  0  0  0  0  0  0  0  0  0  0  0
    6.8017    4.7211   -0.8695 H   0  0  0  0  0  0  0  0  0  0  0  0
    5.4472    5.6344   -1.5901 H   0  0  0  0  0  0  0  0  0  0  0  0
    3.6376    3.1978   -2.2314 H   0  0  0  0  0  0  0  0  0  0  0  0
    3.0603    4.6991   -1.4578 H   0  0  0  0  0  0  0  0  0  0  0  0
    2.7709    3.1298   -0.6723 H   0  0  0  0  0  0  0  0  0  0  0  0
    5.5753    4.5966    1.3833 H   0  0  0  0  0  0  0  0  0  0  0  0
    3.9376    3.8900    1.4629 H   0  0  0  0  0  0  0  0  0  0  0  0
    4.1751    5.4926    0.7269 H   0  0  0  0  0  0  0  0  0  0  0  0
  1  2  1  0
  1 35  1  0
  1 36  1  0
  1 37  1  0
  2  3  1  0
  2  4  1  0
  2 38  1  6
  3 39  1  0
  4  5  1  0
  4 40  1  0
  4 41  1  0
  5  6  1  0
  5 28  1  0
  6  7  1  0
  6 42  1  0
  6 43  1  0
  7  8  2  0
  7 26  1  0
  8  9  1  0
  9 10  2  0
  9 44  1  0
 10 11  1  0
 10 26  1  0
 11 12  2  0
 11 25  1  0
 12 13  1  0
 12 45  1  0
 13 14  2  0
 13 46  1  0
 14 15  1  0
 14 24  1  0
 15 16  1  0
 15 23  1  0
 16 17  1  0
 17 18  1  1
 17 19  1  0
 17 20  1  0
 18 47  1  0
 18 48  1  0
 18 49  1  0
 19 50  1  0
 19 51  1  0
 19 52  1  0
 20 21  1  1
 20 22  1  0
 20 23  1  0
 21 53  1  0
 21 54  1  0
 21 55  1  0
 22 56  1  0
 22 57  1  0
 22 58  1  0
 24 25  2  0
 24 59  1  0
 25 60  1  0
 26 27  1  0
 28 29  2  0
 28 30  1  0
 31 30  1  1
 31 32  1  0
 31 33  1  0
 31 34  1  0
 32 61  1  0
 32 62  1  0
 32 63  1  0
 33 64  1  0
 33 65  1  0
 33 66  1  0
 34 67  1  0
 34 68  1  0
 34 69  1  0
M  END

