
     RDKit          3D

 40 41  0  0  0  0  0  0  0  0999 V2000
    2.2054   -0.8296    0.2633 O   0  0  0  0  0  0  0  0  0  0  0  0
    1.9963    0.2539   -0.2163 C   0  0  0  0  0  0  0  0  0  0  0  0
    1.0653    0.4752   -1.1480 O   0  0  0  0  0  0  0  0  0  0  0  0
    2.7994    1.4984    0.1869 C   0  0  2  0  0  0  0  0  0  0  0  0
    2.5775    1.6570    1.2598 H   0  0  0  0  0  0  0  0  0  0  0  0
    2.3244    2.5927   -0.5813 O   0  0  0  0  0  0  0  0  0  0  0  0
    4.3229    1.2130    0.0438 C   0  0  1  0  0  0  0  0  0  0  0  0
    4.5224    0.4649    0.8305 H   0  0  0  0  0  0  0  0  0  0  0  0
    4.7343    0.5799   -1.2002 N   0  0  0  0  0  0  0  0  0  0  0  0
    4.3854    1.1995   -2.4735 C   0  0  0  0  0  0  0  0  0  0  0  0
    5.0906    0.4857   -3.6375 C   0  0  0  0  0  0  0  0  0  0  0  0
    4.7672    1.1007   -4.9807 C   0  0  0  0  0  0  0  0  0  0  0  0
    5.5924    2.0905   -5.5383 C   0  0  0  0  0  0  0  0  0  0  0  0
    5.2724    2.6907   -6.7595 C   0  0  0  0  0  0  0  0  0  0  0  0
    4.1156    2.3109   -7.4463 C   0  0  0  0  0  0  0  0  0  0  0  0
    3.2840    1.3265   -6.9035 C   0  0  0  0  0  0  0  0  0  0  0  0
    3.6086    0.7289   -5.6825 C   0  0  0  0  0  0  0  0  0  0  0  0
    5.1724    2.4506    0.3673 C   0  0  0  0  0  0  0  0  0  0  0  0
    4.7283    3.4709    1.2283 C   0  0  0  0  0  0  0  0  0  0  0  0
    5.5456    4.5593    1.5512 C   0  0  0  0  0  0  0  0  0  0  0  0
    6.8244    4.6274    1.0082 C   0  0  0  0  0  0  0  0  0  0  0  0
    7.6123    5.6681    1.3099 F   0  0  0  0  0  0  0  0  0  0  0  0
    7.3007    3.6329    0.1562 C   0  0  0  0  0  0  0  0  0  0  0  0
    6.4728    2.5549   -0.1569 C   0  0  0  0  0  0  0  0  0  0  0  0
    1.1130    1.4263   -1.3739 H   0  0  0  0  0  0  0  0  0  0  0  0
    3.0054    3.2783   -0.6346 H   0  0  0  0  0  0  0  0  0  0  0  0
    4.4763   -0.4044   -1.1893 H   0  0  0  0  0  0  0  0  0  0  0  0
    4.7060    2.2550   -2.4533 H   0  0  0  0  0  0  0  0  0  0  0  0
    3.2967    1.2133   -2.6758 H   0  0  0  0  0  0  0  0  0  0  0  0
    4.7885   -0.5765   -3.6338 H   0  0  0  0  0  0  0  0  0  0  0  0
    6.1771    0.5042   -3.4558 H   0  0  0  0  0  0  0  0  0  0  0  0
    6.5025    2.3906   -5.0101 H   0  0  0  0  0  0  0  0  0  0  0  0
    5.9316    3.4558   -7.1781 H   0  0  0  0  0  0  0  0  0  0  0  0
    3.8652    2.7767   -8.4028 H   0  0  0  0  0  0  0  0  0  0  0  0
    2.3797    1.0188   -7.4352 H   0  0  0  0  0  0  0  0  0  0  0  0
    2.9550   -0.0452   -5.2688 H   0  0  0  0  0  0  0  0  0  0  0  0
    3.7329    3.4326    1.6756 H   0  0  0  0  0  0  0  0  0  0  0  0
    5.2020    5.3509    2.2198 H   0  0  0  0  0  0  0  0  0  0  0  0
    8.3118    3.7131   -0.2484 H   0  0  0  0  0  0  0  0  0  0  0  0
    6.8288    1.7598   -0.8134 H   0  0  0  0  0  0  0  0  0  0  0  0
  1  2  2  0
  2  3  1  0
  2  4  1  0
  3 25  1  0
  4  5  1  1
  4  6  1  0
  4  7  1  0
  6 26  1  0
  7  8  1  1
  7  9  1  0
  7 18  1  0
  9 10  1  0
  9 27  1  0
 10 11  1  0
 10 28  1  0
 10 29  1  0
 11 12  1  0
 11 30  1  0
 11 31  1  0
 12 13  2  0
 12 17  1  0
 13 14  1  0
 13 32  1  0
 14 15  2  0
 14 33  1  0
 15 16  1  0
 15 34  1  0
 16 17  2  0
 16 35  1  0
 17 36  1  0
 18 19  2  0
 18 24  1  0
 19 20  1  0
 19 37  1  0
 20 21  2  0
 20 38  1  0
 21 22  1  0
 21 23  1  0
 23 24  2  0
 23 39  1  0
 24 40  1  0
M  END

