
     RDKit          3D

 35 35  0  0  0  0  0  0  0  0999 V2000
    2.0391   -1.0223    0.1049 C   0  0  0  0  0  0  0  0  0  0  0  0
    2.9682    0.1888    0.0261 C   0  0  1  0  0  0  0  0  0  0  0  0
    3.4078    0.3700   -1.4509 C   0  0  0  0  0  0  0  0  0  0  0  0
    2.6134    0.7390   -2.3022 O   0  0  0  0  0  0  0  0  0  0  0  0
    4.7077    0.0559   -1.6918 N   0  0  0  0  0  0  0  0  0  0  0  0
    5.3091    0.0952   -3.0096 C   0  0  0  0  0  0  0  0  0  0  0  0
    5.8062   -1.2705   -3.5017 C   0  0  0  0  0  0  0  0  0  0  0  0
    4.7042   -2.3223   -3.6441 C   0  0  0  0  0  0  0  0  0  0  0  0
    5.2232   -3.6624   -4.1598 C   0  0  0  0  0  0  0  0  0  0  0  0
    4.1586   -4.7527   -4.2031 C   0  0  0  0  0  0  0  0  0  0  0  0
    3.0495   -4.6427   -3.7611 O   0  0  0  0  0  0  0  0  0  0  0  0
    4.5526   -5.9164   -4.7780 O   0  0  0  0  0  0  0  0  0  0  0  0
    2.3421    1.4946    0.5534 C   0  0  0  0  0  0  0  0  0  0  0  0
    3.5504    2.2352    1.1352 C   0  0  0  0  0  0  0  0  0  0  0  0
    4.3685    1.0786    1.7128 C   0  0  0  0  0  0  0  0  0  0  0  0
    4.1233   -0.0409    0.8588 O   0  0  0  0  0  0  0  0  0  0  0  0
    1.1680   -0.8693   -0.5480 H   0  0  0  0  0  0  0  0  0  0  0  0
    1.6986   -1.1704    1.1411 H   0  0  0  0  0  0  0  0  0  0  0  0
    2.5619   -1.9342   -0.2220 H   0  0  0  0  0  0  0  0  0  0  0  0
    5.2461   -0.2270   -0.8780 H   0  0  0  0  0  0  0  0  0  0  0  0
    6.1514    0.8105   -3.0147 H   0  0  0  0  0  0  0  0  0  0  0  0
    4.5382    0.4915   -3.6874 H   0  0  0  0  0  0  0  0  0  0  0  0
    6.5898   -1.6435   -2.8148 H   0  0  0  0  0  0  0  0  0  0  0  0
    6.3092   -1.1148   -4.4734 H   0  0  0  0  0  0  0  0  0  0  0  0
    3.9140   -1.9525   -4.3184 H   0  0  0  0  0  0  0  0  0  0  0  0
    4.2091   -2.4853   -2.6742 H   0  0  0  0  0  0  0  0  0  0  0  0
    6.0475   -4.0320   -3.5201 H   0  0  0  0  0  0  0  0  0  0  0  0
    5.6578   -3.5545   -5.1714 H   0  0  0  0  0  0  0  0  0  0  0  0
    5.4660   -5.8478   -5.0900 H   0  0  0  0  0  0  0  0  0  0  0  0
    1.6133    1.2599    1.3466 H   0  0  0  0  0  0  0  0  0  0  0  0
    1.8197    2.0354   -0.2466 H   0  0  0  0  0  0  0  0  0  0  0  0
    3.2836    2.9881    1.8918 H   0  0  0  0  0  0  0  0  0  0  0  0
    4.1123    2.7451    0.3355 H   0  0  0  0  0  0  0  0  0  0  0  0
    4.0442    0.8348    2.7427 H   0  0  0  0  0  0  0  0  0  0  0  0
    5.4529    1.2760    1.7406 H   0  0  0  0  0  0  0  0  0  0  0  0
  1  2  1  0
  1 17  1  0
  1 18  1  0
  1 19  1  0
  2  3  1  6
  2 13  1  0
  2 16  1  0
  3  4  2  0
  3  5  1  0
  5  6  1  0
  5 20  1  0
  6  7  1  0
  6 21  1  0
  6 22  1  0
  7  8  1  0
  7 23  1  0
  7 24  1  0
  8  9  1  0
  8 25  1  0
  8 26  1  0
  9 10  1  0
  9 27  1  0
  9 28  1  0
 10 11  2  0
 10 12  1  0
 12 29  1  0
 13 14  1  0
 13 30  1  0
 13 31  1  0
 14 15  1  0
 14 32  1  0
 14 33  1  0
 15 16  1  0
 15 34  1  0
 15 35  1  0
M  END

