
     RDKit          3D

 54 57  0  0  0  0  0  0  0  0999 V2000
    9.1757    3.6003   -2.6350 C   0  0  0  0  0  0  0  0  0  0  0  0
    8.3336    4.5869   -2.0862 O   0  0  0  0  0  0  0  0  0  0  0  0
    7.7502    4.3673   -0.8788 C   0  0  0  0  0  0  0  0  0  0  0  0
    7.9235    3.2064   -0.1085 C   0  0  0  0  0  0  0  0  0  0  0  0
    7.2727    3.0862    1.1240 C   0  0  0  0  0  0  0  0  0  0  0  0
    6.4456    4.1013    1.6190 C   0  0  0  0  0  0  0  0  0  0  0  0
    5.7050    3.9400    2.9352 C   0  0  0  0  0  0  0  0  0  0  0  0
    6.5128    3.3184    3.9670 N   0  0  0  0  0  0  0  0  0  0  0  0
    5.8423    2.7953    5.1614 C   0  0  1  0  0  0  0  0  0  0  0  0
    7.0313    2.1136    5.8764 C   0  0  0  0  0  0  0  0  0  0  0  0
    8.2595    2.9788    5.4679 C   0  0  0  0  0  0  0  0  0  0  0  0
    7.6629    4.0511    4.5244 C   0  0  2  0  0  0  0  0  0  0  0  0
    7.2111    5.3261    5.2650 C   0  0  0  0  0  0  0  0  0  0  0  0
    6.1690    5.0569    6.3851 C   0  0  2  0  0  0  0  0  0  0  0  0
    6.7777    4.7794    7.6892 N   0  0  0  0  0  0  0  0  0  0  0  0
    7.2048    5.8030    8.5022 C   0  0  0  0  0  0  0  0  0  0  0  0
    7.0540    6.9796    8.2173 O   0  0  0  0  0  0  0  0  0  0  0  0
    7.8084    5.3570    9.6772 N   0  0  0  0  0  0  0  0  0  0  0  0
    8.3601    6.1190   10.7175 C   0  0  0  0  0  0  0  0  0  0  0  0
    8.3971    7.5265   10.7213 C   0  0  0  0  0  0  0  0  0  0  0  0
    8.9740    8.1927   11.8039 C   0  0  0  0  0  0  0  0  0  0  0  0
    9.5189    7.5058   12.8919 C   0  0  0  0  0  0  0  0  0  0  0  0
    9.4741    6.1102   12.8745 C   0  0  0  0  0  0  0  0  0  0  0  0
   10.1444    5.2027   14.2154 Cl  0  0  0  0  0  0  0  0  0  0  0  0
    8.9059    5.4151   11.8086 C   0  0  0  0  0  0  0  0  0  0  0  0
    5.1863    3.9272    5.9888 C   0  0  0  0  0  0  0  0  0  0  0  0
    6.2902    5.2589    0.8392 C   0  0  0  0  0  0  0  0  0  0  0  0
    6.9257    5.3951   -0.3920 C   0  0  0  0  0  0  0  0  0  0  0  0
    9.5285    3.9898   -3.5997 H   0  0  0  0  0  0  0  0  0  0  0  0
    8.6396    2.6494   -2.8095 H   0  0  0  0  0  0  0  0  0  0  0  0
   10.0510    3.3987   -1.9907 H   0  0  0  0  0  0  0  0  0  0  0  0
    8.5602    2.3924   -0.4567 H   0  0  0  0  0  0  0  0  0  0  0  0
    7.4149    2.1854    1.7260 H   0  0  0  0  0  0  0  0  0  0  0  0
    4.8309    3.2805    2.7787 H   0  0  0  0  0  0  0  0  0  0  0  0
    5.2825    4.9280    3.2191 H   0  0  0  0  0  0  0  0  0  0  0  0
    5.0667    2.0670    4.8707 H   0  0  0  0  0  0  0  0  0  0  0  0
    7.1436    1.0867    5.5005 H   0  0  0  0  0  0  0  0  0  0  0  0
    6.8805    2.0292    6.9654 H   0  0  0  0  0  0  0  0  0  0  0  0
    8.9928    2.3670    4.9235 H   0  0  0  0  0  0  0  0  0  0  0  0
    8.7830    3.4289    6.3241 H   0  0  0  0  0  0  0  0  0  0  0  0
    8.3618    4.3234    3.7186 H   0  0  0  0  0  0  0  0  0  0  0  0
    6.7650    6.0196    4.5325 H   0  0  0  0  0  0  0  0  0  0  0  0
    8.0706    5.8632    5.6951 H   0  0  0  0  0  0  0  0  0  0  0  0
    5.6049    5.9874    6.5399 H   0  0  0  0  0  0  0  0  0  0  0  0
    7.0310    3.8255    7.9096 H   0  0  0  0  0  0  0  0  0  0  0  0
    7.8304    4.3562    9.8309 H   0  0  0  0  0  0  0  0  0  0  0  0
    7.9727    8.0707    9.8817 H   0  0  0  0  0  0  0  0  0  0  0  0
    8.9976    9.2856   11.7979 H   0  0  0  0  0  0  0  0  0  0  0  0
    9.9675    8.0323   13.7348 H   0  0  0  0  0  0  0  0  0  0  0  0
    8.8904    4.3229   11.8304 H   0  0  0  0  0  0  0  0  0  0  0  0
    4.3765    4.3666    5.3838 H   0  0  0  0  0  0  0  0  0  0  0  0
    4.7019    3.5249    6.8943 H   0  0  0  0  0  0  0  0  0  0  0  0
    5.6567    6.0734    1.2038 H   0  0  0  0  0  0  0  0  0  0  0  0
    6.8062    6.2958   -0.9977 H   0  0  0  0  0  0  0  0  0  0  0  0
  1  2  1  0
  1 29  1  0
  1 30  1  0
  1 31  1  0
  2  3  1  0
  3  4  2  0
  3 28  1  0
  4  5  1  0
  4 32  1  0
  5  6  2  0
  5 33  1  0
  6  7  1  0
  6 27  1  0
  7  8  1  0
  7 34  1  0
  7 35  1  0
  8  9  1  0
  8 12  1  0
  9 10  1  0
  9 26  1  0
  9 36  1  6
 10 11  1  0
 10 37  1  0
 10 38  1  0
 11 12  1  0
 11 39  1  0
 11 40  1  0
 12 13  1  0
 12 41  1  6
 13 14  1  0
 13 42  1  0
 13 43  1  0
 14 15  1  0
 14 26  1  0
 14 44  1  1
 15 16  1  0
 15 45  1  0
 16 17  2  0
 16 18  1  0
 18 19  1  0
 18 46  1  0
 19 20  2  0
 19 25  1  0
 20 21  1  0
 20 47  1  0
 21 22  2  0
 21 48  1  0
 22 23  1  0
 22 49  1  0
 23 24  1  0
 23 25  2  0
 25 50  1  0
 26 51  1  0
 26 52  1  0
 27 28  2  0
 27 53  1  0
 28 54  1  0
M  END

