
     RDKit          3D

 35 35  0  0  0  0  0  0  0  0999 V2000
    2.0273    0.8035    1.0013 C   0  0  0  0  0  0  0  0  0  0  0  0
    2.6316   -0.0678    0.0717 O   0  0  0  0  0  0  0  0  0  0  0  0
    3.1124    0.4253   -1.0984 C   0  0  0  0  0  0  0  0  0  0  0  0
    3.0017    1.7707   -1.4650 C   0  0  0  0  0  0  0  0  0  0  0  0
    3.5261    2.2255   -2.6852 C   0  0  0  0  0  0  0  0  0  0  0  0
    3.3960    3.6803   -3.0656 C   0  0  0  0  0  0  0  0  0  0  0  0
    4.1559    1.3073   -3.5280 C   0  0  0  0  0  0  0  0  0  0  0  0
    4.2713   -0.0535   -3.1940 C   0  0  0  0  0  0  0  0  0  0  0  0
    4.9645   -0.9954   -4.1487 C   0  0  0  0  0  0  0  0  0  0  0  0
    3.7409   -0.5032   -1.9686 C   0  0  0  0  0  0  0  0  0  0  0  0
    3.9614   -2.2043   -1.4659 S   0  0  0  0  0  0  0  0  0  0  0  0
    2.2226   -2.8082   -1.3606 C   0  0  0  0  0  0  0  0  0  0  0  0
    2.2015   -4.2363   -0.8064 C   0  0  1  0  0  0  0  0  0  0  0  0
    2.6183   -4.3108    0.6760 C   0  0  0  0  0  0  0  0  0  0  0  0
    0.8139   -4.8551   -1.0188 C   0  0  0  0  0  0  0  0  0  0  0  0
   -0.1317   -4.2731   -1.4743 O   0  0  0  0  0  0  0  0  0  0  0  0
    0.6967   -6.1516   -0.6440 O   0  0  0  0  0  0  0  0  0  0  0  0
    1.7455    0.1883    1.8663 H   0  0  0  0  0  0  0  0  0  0  0  0
    1.1190    1.2797    0.5905 H   0  0  0  0  0  0  0  0  0  0  0  0
    2.7235    1.5933    1.3353 H   0  0  0  0  0  0  0  0  0  0  0  0
    2.5105    2.4839   -0.8021 H   0  0  0  0  0  0  0  0  0  0  0  0
    3.8487    4.3360   -2.3029 H   0  0  0  0  0  0  0  0  0  0  0  0
    2.3371    3.9764   -3.1550 H   0  0  0  0  0  0  0  0  0  0  0  0
    3.8858    3.8930   -4.0269 H   0  0  0  0  0  0  0  0  0  0  0  0
    4.5676    1.6513   -4.4806 H   0  0  0  0  0  0  0  0  0  0  0  0
    5.1699   -0.4982   -5.1079 H   0  0  0  0  0  0  0  0  0  0  0  0
    4.3573   -1.8939   -4.3359 H   0  0  0  0  0  0  0  0  0  0  0  0
    5.9246   -1.3521   -3.7401 H   0  0  0  0  0  0  0  0  0  0  0  0
    1.7710   -2.7843   -2.3609 H   0  0  0  0  0  0  0  0  0  0  0  0
    1.6518   -2.1344   -0.7078 H   0  0  0  0  0  0  0  0  0  0  0  0
    2.9088   -4.8508   -1.3977 H   0  0  0  0  0  0  0  0  0  0  0  0
    1.8788   -3.8012    1.3139 H   0  0  0  0  0  0  0  0  0  0  0  0
    3.5887   -3.8156    0.8220 H   0  0  0  0  0  0  0  0  0  0  0  0
    2.7164   -5.3481    1.0362 H   0  0  0  0  0  0  0  0  0  0  0  0
    1.5385   -6.4845   -0.3019 H   0  0  0  0  0  0  0  0  0  0  0  0
  1  2  1  0
  1 18  1  0
  1 19  1  0
  1 20  1  0
  2  3  1  0
  3  4  2  0
  3 10  1  0
  4  5  1  0
  4 21  1  0
  5  6  1  0
  5  7  2  0
  6 22  1  0
  6 23  1  0
  6 24  1  0
  7  8  1  0
  7 25  1  0
  8  9  1  0
  8 10  2  0
  9 26  1  0
  9 27  1  0
  9 28  1  0
 10 11  1  0
 11 12  1  0
 12 13  1  0
 12 29  1  0
 12 30  1  0
 13 14  1  0
 13 15  1  0
 13 31  1  6
 14 32  1  0
 14 33  1  0
 14 34  1  0
 15 16  2  0
 15 17  1  0
 17 35  1  0
M  END

