
     RDKit          3D

 43 45  0  0  0  0  0  0  0  0999 V2000
    2.1973    0.5849   -3.2190 C   0  0  0  0  0  0  0  0  0  0  0  0
    1.7972    1.2865   -2.0637 O   0  0  0  0  0  0  0  0  0  0  0  0
    2.7236    1.9911   -1.3609 C   0  0  0  0  0  0  0  0  0  0  0  0
    4.0757    2.0964   -1.7119 C   0  0  0  0  0  0  0  0  0  0  0  0
    4.9668    2.8132   -0.9059 C   0  0  0  0  0  0  0  0  0  0  0  0
    4.5344    3.4429    0.2649 C   0  0  0  0  0  0  0  0  0  0  0  0
    5.5165    4.2668    1.0878 C   0  0  1  0  0  0  0  0  0  0  0  0
    5.7054    5.6998    0.4850 C   0  0  0  0  0  0  0  0  0  0  0  0
    5.6763    6.6535    1.6861 C   0  0  0  0  0  0  0  0  0  0  0  0
    4.7363    5.9362    2.6560 C   0  0  0  0  0  0  0  0  0  0  0  0
    5.0986    4.5226    2.4816 N   0  0  0  0  0  0  0  0  0  0  0  0
    5.4930    3.8116    3.5972 C   0  0  0  0  0  0  0  0  0  0  0  0
    5.4100    4.2901    4.7222 O   0  0  0  0  0  0  0  0  0  0  0  0
    6.0582    2.4353    3.4432 C   0  0  0  0  0  0  0  0  0  0  0  0
    5.4707    1.1923    2.3635 S   0  0  0  0  0  0  0  0  0  0  0  0
    6.5933    0.0863    3.0826 C   0  0  0  0  0  0  0  0  0  0  0  0
    7.3388    0.5803    4.0255 N   0  0  0  0  0  0  0  0  0  0  0  0
    7.0450    1.9005    4.2628 C   0  0  0  0  0  0  0  0  0  0  0  0
    7.7879    2.6084    5.3566 C   0  0  0  0  0  0  0  0  0  0  0  0
    3.1780    3.3454    0.6063 C   0  0  0  0  0  0  0  0  0  0  0  0
    2.2710    2.6354   -0.1819 C   0  0  0  0  0  0  0  0  0  0  0  0
    0.9821    2.5254    0.2513 O   0  0  0  0  0  0  0  0  0  0  0  0
   -0.0415    3.0810   -0.5609 C   0  0  0  0  0  0  0  0  0  0  0  0
    1.3008    0.0825   -3.6064 H   0  0  0  0  0  0  0  0  0  0  0  0
    2.9636   -0.1773   -2.9900 H   0  0  0  0  0  0  0  0  0  0  0  0
    2.5924    1.2625   -3.9977 H   0  0  0  0  0  0  0  0  0  0  0  0
    4.4503    1.6029   -2.6090 H   0  0  0  0  0  0  0  0  0  0  0  0
    6.0201    2.8631   -1.1967 H   0  0  0  0  0  0  0  0  0  0  0  0
    6.4838    3.7395    1.1003 H   0  0  0  0  0  0  0  0  0  0  0  0
    4.8669    5.9200   -0.1929 H   0  0  0  0  0  0  0  0  0  0  0  0
    6.6298    5.7682   -0.1075 H   0  0  0  0  0  0  0  0  0  0  0  0
    5.3332    7.6650    1.4205 H   0  0  0  0  0  0  0  0  0  0  0  0
    6.6760    6.7450    2.1422 H   0  0  0  0  0  0  0  0  0  0  0  0
    3.6795    6.0984    2.3762 H   0  0  0  0  0  0  0  0  0  0  0  0
    4.8615    6.2112    3.7092 H   0  0  0  0  0  0  0  0  0  0  0  0
    6.6443   -0.9506    2.7401 H   0  0  0  0  0  0  0  0  0  0  0  0
    7.3178    2.3932    6.3308 H   0  0  0  0  0  0  0  0  0  0  0  0
    7.7763    3.6973    5.2316 H   0  0  0  0  0  0  0  0  0  0  0  0
    8.8217    2.2350    5.3956 H   0  0  0  0  0  0  0  0  0  0  0  0
    2.7954    3.8038    1.5200 H   0  0  0  0  0  0  0  0  0  0  0  0
   -0.9820    2.9603   -0.0050 H   0  0  0  0  0  0  0  0  0  0  0  0
   -0.1238    2.5657   -1.5302 H   0  0  0  0  0  0  0  0  0  0  0  0
    0.1313    4.1589   -0.7365 H   0  0  0  0  0  0  0  0  0  0  0  0
  1  2  1  0
  1 24  1  0
  1 25  1  0
  1 26  1  0
  2  3  1  0
  3  4  2  0
  3 21  1  0
  4  5  1  0
  4 27  1  0
  5  6  2  0
  5 28  1  0
  6  7  1  0
  6 20  1  0
  7  8  1  0
  7 11  1  0
  7 29  1  1
  8  9  1  0
  8 30  1  0
  8 31  1  0
  9 10  1  0
  9 32  1  0
  9 33  1  0
 10 11  1  0
 10 34  1  0
 10 35  1  0
 11 12  1  0
 12 13  2  0
 12 14  1  0
 14 15  1  0
 14 18  2  0
 15 16  1  0
 16 17  2  0
 16 36  1  0
 17 18  1  0
 18 19  1  0
 19 37  1  0
 19 38  1  0
 19 39  1  0
 20 21  2  0
 20 40  1  0
 21 22  1  0
 22 23  1  0
 23 41  1  0
 23 42  1  0
 23 43  1  0
M  END

