
     RDKit          3D

 76 84  0  0  0  0  0  0  0  0999 V2000
    0.7763   -0.1992   -0.2816 C   0  0  0  0  0  0  0  0  0  0  0  0
   -0.4371   -0.1970   -0.1148 C   0  0  0  0  0  0  0  0  0  0  0  0
   -1.8431   -0.1946    0.0844 C   0  0  0  0  0  0  0  0  0  0  0  0
   -2.4459   -1.1597    0.9437 C   0  0  0  0  0  0  0  0  0  0  0  0
   -3.8133   -1.1754    1.1567 C   0  0  0  0  0  0  0  0  0  0  0  0
   -4.6241   -0.2204    0.5131 C   0  0  0  0  0  0  0  0  0  0  0  0
   -5.9930   -0.1199    0.6360 N   0  0  0  0  0  0  0  0  0  0  0  0
   -6.4470    0.8571   -0.0765 C   0  0  0  0  0  0  0  0  0  0  0  0
   -5.2653    1.7870   -0.9945 S   0  0  0  0  0  0  0  0  0  0  0  0
   -4.0215    0.7424   -0.3451 C   0  0  0  0  0  0  0  0  0  0  0  0
   -2.6457    0.7658   -0.5663 C   0  0  0  0  0  0  0  0  0  0  0  0
    2.1754   -0.1973   -0.4755 C   0  0  0  0  0  0  0  0  0  0  0  0
    2.7924    0.7377   -1.3501 C   0  0  0  0  0  0  0  0  0  0  0  0
    4.1612    0.7531   -1.5314 C   0  0  0  0  0  0  0  0  0  0  0  0
    4.9898   -0.1914   -0.8689 C   0  0  0  0  0  0  0  0  0  0  0  0
    6.3695   -0.1512   -1.0516 N   0  0  0  0  0  0  0  0  0  0  0  0
    6.9880    1.1194   -1.3834 C   0  0  0  0  0  0  0  0  0  0  0  0
    7.0436    2.1532   -0.4245 C   0  0  0  0  0  0  0  0  0  0  0  0
    7.6379    3.3631   -0.7351 C   0  0  0  0  0  0  0  0  0  0  0  0
    8.2109    3.6089   -2.0299 C   0  0  0  0  0  0  0  0  0  0  0  0
    8.8131    4.8289   -2.3463 C   0  0  0  0  0  0  0  0  0  0  0  0
    9.3482    5.9091   -2.6263 C   0  0  0  0  0  0  0  0  0  0  0  0
    9.9543    7.1326   -2.9411 C   0  0  0  0  0  0  0  0  0  0  0  0
   10.0006    8.1973   -1.9753 C   0  0  0  0  0  0  0  0  0  0  0  0
   10.5891    9.4124   -2.2544 C   0  0  0  0  0  0  0  0  0  0  0  0
   11.1732    9.6412   -3.5256 C   0  0  0  0  0  0  0  0  0  0  0  0
   11.7878   10.7954   -3.9362 N   0  0  0  0  0  0  0  0  0  0  0  0
   12.2217   10.6960   -5.1539 C   0  0  0  0  0  0  0  0  0  0  0  0
   11.9218    9.1429   -5.9586 S   0  0  0  0  0  0  0  0  0  0  0  0
   11.1313    8.5865   -4.4898 C   0  0  0  0  0  0  0  0  0  0  0  0
   10.5420    7.3585   -4.2242 C   0  0  0  0  0  0  0  0  0  0  0  0
    8.1335    2.5359   -2.9828 C   0  0  0  0  0  0  0  0  0  0  0  0
    7.5404    1.3271   -2.6652 C   0  0  0  0  0  0  0  0  0  0  0  0
    7.1832   -1.2736   -0.9251 C   0  0  0  0  0  0  0  0  0  0  0  0
    6.7103   -2.5798   -1.2293 C   0  0  0  0  0  0  0  0  0  0  0  0
    7.5444   -3.6766   -1.1221 C   0  0  0  0  0  0  0  0  0  0  0  0
    8.8936   -3.5325   -0.7049 C   0  0  0  0  0  0  0  0  0  0  0  0
    9.7444   -4.6539   -0.5888 C   0  0  0  0  0  0  0  0  0  0  0  0
   10.4869   -5.6224   -0.4843 C   0  0  0  0  0  0  0  0  0  0  0  0
   11.3477   -6.7454   -0.3642 C   0  0  0  0  0  0  0  0  0  0  0  0
   10.8505   -8.0591   -0.6093 C   0  0  0  0  0  0  0  0  0  0  0  0
   11.6707   -9.1684   -0.4988 C   0  0  0  0  0  0  0  0  0  0  0  0
   13.0214   -8.9962   -0.1385 C   0  0  0  0  0  0  0  0  0  0  0  0
   13.9461  -10.0077    0.0060 N   0  0  0  0  0  0  0  0  0  0  0  0
   15.0985   -9.5311    0.3422 C   0  0  0  0  0  0  0  0  0  0  0  0
   15.2116   -7.7829    0.5282 S   0  0  0  0  0  0  0  0  0  0  0  0
   13.5169   -7.6842    0.1057 C   0  0  0  0  0  0  0  0  0  0  0  0
   12.6986   -6.5613   -0.0022 C   0  0  0  0  0  0  0  0  0  0  0  0
    9.3683   -2.2221   -0.4266 C   0  0  0  0  0  0  0  0  0  0  0  0
    8.5443   -1.1209   -0.5482 C   0  0  0  0  0  0  0  0  0  0  0  0
    4.3797   -1.1140    0.0249 C   0  0  0  0  0  0  0  0  0  0  0  0
    3.0108   -1.1143    0.2148 C   0  0  0  0  0  0  0  0  0  0  0  0
   -1.8053   -1.8930    1.4366 H   0  0  0  0  0  0  0  0  0  0  0  0
   -4.2802   -1.9111    1.8138 H   0  0  0  0  0  0  0  0  0  0  0  0
   -7.5045    1.1291   -0.1364 H   0  0  0  0  0  0  0  0  0  0  0  0
   -2.1844    1.5044   -1.2235 H   0  0  0  0  0  0  0  0  0  0  0  0
    2.1681    1.4549   -1.8856 H   0  0  0  0  0  0  0  0  0  0  0  0
    4.6199    1.4825   -2.1978 H   0  0  0  0  0  0  0  0  0  0  0  0
    6.6182    1.9938    0.5701 H   0  0  0  0  0  0  0  0  0  0  0  0
    7.6770    4.1564    0.0138 H   0  0  0  0  0  0  0  0  0  0  0  0
    9.5511    8.0217   -0.9955 H   0  0  0  0  0  0  0  0  0  0  0  0
   10.6162   10.2123   -1.5112 H   0  0  0  0  0  0  0  0  0  0  0  0
   12.7439   11.4903   -5.6916 H   0  0  0  0  0  0  0  0  0  0  0  0
   10.5188    6.5643   -4.9721 H   0  0  0  0  0  0  0  0  0  0  0  0
    8.5568    2.6877   -3.9775 H   0  0  0  0  0  0  0  0  0  0  0  0
    7.4956    0.5289   -3.4111 H   0  0  0  0  0  0  0  0  0  0  0  0
    5.6919   -2.7148   -1.5945 H   0  0  0  0  0  0  0  0  0  0  0  0
    7.1720   -4.6690   -1.3828 H   0  0  0  0  0  0  0  0  0  0  0  0
    9.8021   -8.1775   -0.8886 H   0  0  0  0  0  0  0  0  0  0  0  0
   11.2958  -10.1762   -0.6853 H   0  0  0  0  0  0  0  0  0  0  0  0
   15.9868  -10.1454    0.5129 H   0  0  0  0  0  0  0  0  0  0  0  0
   13.0789   -5.5560    0.1847 H   0  0  0  0  0  0  0  0  0  0  0  0
   10.4044   -2.0895   -0.1105 H   0  0  0  0  0  0  0  0  0  0  0  0
    8.9262   -0.1223   -0.3400 H   0  0  0  0  0  0  0  0  0  0  0  0
    5.0011   -1.7983    0.6027 H   0  0  0  0  0  0  0  0  0  0  0  0
    2.5616   -1.8121    0.9238 H   0  0  0  0  0  0  0  0  0  0  0  0
  1  2  3  0
  1 12  1  0
  2  3  1  0
  3  4  2  0
  3 11  1  0
  4  5  1  0
  4 53  1  0
  5  6  2  0
  5 54  1  0
  6  7  1  0
  6 10  1  0
  7  8  2  0
  8  9  1  0
  8 55  1  0
  9 10  1  0
 10 11  2  0
 11 56  1  0
 12 13  2  0
 12 52  1  0
 13 14  1  0
 13 57  1  0
 14 15  2  0
 14 58  1  0
 15 16  1  0
 15 51  1  0
 16 17  1  0
 16 34  1  0
 17 18  2  0
 17 33  1  0
 18 19  1  0
 18 59  1  0
 19 20  2  0
 19 60  1  0
 20 21  1  0
 20 32  1  0
 21 22  3  0
 22 23  1  0
 23 24  2  0
 23 31  1  0
 24 25  1  0
 24 61  1  0
 25 26  2  0
 25 62  1  0
 26 27  1  0
 26 30  1  0
 27 28  2  0
 28 29  1  0
 28 63  1  0
 29 30  1  0
 30 31  2  0
 31 64  1  0
 32 33  2  0
 32 65  1  0
 33 66  1  0
 34 35  2  0
 34 50  1  0
 35 36  1  0
 35 67  1  0
 36 37  2  0
 36 68  1  0
 37 38  1  0
 37 49  1  0
 38 39  3  0
 39 40  1  0
 40 41  2  0
 40 48  1  0
 41 42  1  0
 41 69  1  0
 42 43  2  0
 42 70  1  0
 43 44  1  0
 43 47  1  0
 44 45  2  0
 45 46  1  0
 45 71  1  0
 46 47  1  0
 47 48  2  0
 48 72  1  0
 49 50  2  0
 49 73  1  0
 50 74  1  0
 51 52  2  0
 51 75  1  0
 52 76  1  0
M  END

