
     RDKit          3D

 29 30  0  0  0  0  0  0  0  0999 V2000
    0.6458    1.6857   -0.7620 C   0  0  0  0  0  0  0  0  0  0  0  0
    2.1083    2.0736   -0.9521 C   0  0  0  0  0  0  0  0  0  0  0  0
    2.9561    0.9282   -1.5102 C   0  0  0  0  0  0  0  0  0  0  0  0
    2.4305   -0.1102   -1.8516 O   0  0  0  0  0  0  0  0  0  0  0  0
    4.4453    1.1401   -1.6133 C   0  0  0  0  0  0  0  0  0  0  0  0
    4.9671    2.4462   -1.5994 C   0  0  0  0  0  0  0  0  0  0  0  0
    6.3273    2.7364   -1.7104 C   0  0  0  0  0  0  0  0  0  0  0  0
    7.2390    1.6638   -1.8385 C   0  0  0  0  0  0  0  0  0  0  0  0
    6.7428    0.3554   -1.8507 C   0  0  0  0  0  0  0  0  0  0  0  0
    5.3782    0.0841   -1.7419 C   0  0  0  0  0  0  0  0  0  0  0  0
    4.9273   -1.6012   -1.7342 Cl  0  0  0  0  0  0  0  0  0  0  0  0
    8.5906    1.8131   -1.8693 O   0  0  0  0  0  0  0  0  0  0  0  0
    9.1827    2.6935   -2.8211 C   0  0  0  0  0  0  0  0  0  0  0  0
    8.9866    4.1672   -2.4959 C   0  0  0  0  0  0  0  0  0  0  0  0
    7.5367    4.6213   -2.5900 C   0  0  0  0  0  0  0  0  0  0  0  0
    6.7022    4.0442   -1.5920 O   0  0  0  0  0  0  0  0  0  0  0  0
    0.0664    2.5350   -0.3688 H   0  0  0  0  0  0  0  0  0  0  0  0
    0.5474    0.8439   -0.0603 H   0  0  0  0  0  0  0  0  0  0  0  0
    0.1955    1.3651   -1.7127 H   0  0  0  0  0  0  0  0  0  0  0  0
    2.5583    2.4163   -0.0038 H   0  0  0  0  0  0  0  0  0  0  0  0
    2.1883    2.9346   -1.6397 H   0  0  0  0  0  0  0  0  0  0  0  0
    4.3056    3.3052   -1.4909 H   0  0  0  0  0  0  0  0  0  0  0  0
    7.4582   -0.4634   -1.9315 H   0  0  0  0  0  0  0  0  0  0  0  0
    8.7885    2.4651   -3.8304 H   0  0  0  0  0  0  0  0  0  0  0  0
   10.2525    2.4389   -2.8126 H   0  0  0  0  0  0  0  0  0  0  0  0
    9.5893    4.7630   -3.2042 H   0  0  0  0  0  0  0  0  0  0  0  0
    9.3701    4.3751   -1.4830 H   0  0  0  0  0  0  0  0  0  0  0  0
    7.1269    4.3993   -3.5949 H   0  0  0  0  0  0  0  0  0  0  0  0
    7.4655    5.7073   -2.4299 H   0  0  0  0  0  0  0  0  0  0  0  0
  1  2  1  0
  1 17  1  0
  1 18  1  0
  1 19  1  0
  2  3  1  0
  2 20  1  0
  2 21  1  0
  3  4  2  0
  3  5  1  0
  5  6  2  0
  5 10  1  0
  6  7  1  0
  6 22  1  0
  7  8  2  0
  7 16  1  0
  8  9  1  0
  8 12  1  0
  9 10  2  0
  9 23  1  0
 10 11  1  0
 12 13  1  0
 13 14  1  0
 13 24  1  0
 13 25  1  0
 14 15  1  0
 14 26  1  0
 14 27  1  0
 15 16  1  0
 15 28  1  0
 15 29  1  0
M  END

