
     RDKit          3D

 92 94  0  0  0  0  0  0  0  0999 V2000
   10.5049    0.2536   -4.6522 N   0  0  0  0  0  0  0  0  0  0  0  0
    9.5076    0.1936   -5.7384 C   0  0  0  0  0  0  0  0  0  0  0  0
    8.9919    1.5776   -6.1322 C   0  0  2  0  0  0  0  0  0  0  0  0
    8.2595    1.4390   -6.9601 H   0  0  0  0  0  0  0  0  0  0  0  0
   10.1211    2.3042   -6.5970 O   0  0  0  0  0  0  0  0  0  0  0  0
    8.2817    2.3474   -5.0158 C   0  0  0  0  0  0  0  0  0  0  0  0
    7.6832    3.4485   -5.4881 O   0  0  0  0  0  0  0  0  0  0  0  0
    7.5671    1.6074   -4.0749 N   0  0  0  0  0  0  0  0  0  0  0  0
    6.8078    2.2454   -2.9861 C   0  0  2  0  0  0  0  0  0  0  0  0
    5.7750    2.4329   -3.3358 H   0  0  0  0  0  0  0  0  0  0  0  0
    7.4273    3.5886   -2.5486 C   0  0  0  0  0  0  0  0  0  0  0  0
    6.8239    4.1500   -1.2468 C   0  0  2  0  0  0  0  0  0  0  0  0
    5.7374    4.2935   -1.3938 H   0  0  0  0  0  0  0  0  0  0  0  0
    7.3796    5.4107   -0.7842 N   0  0  0  0  0  0  0  0  0  0  0  0
    6.9898    3.0967   -0.1469 C   0  0  2  0  0  0  0  0  0  0  0  0
    8.3948    2.8273   -0.0287 O   0  0  0  0  0  0  0  0  0  0  0  0
    8.9901    2.7659    1.2361 C   0  0  1  0  0  0  0  0  0  0  0  0
    8.4997    3.4728    1.9258 H   0  0  0  0  0  0  0  0  0  0  0  0
    8.8145    1.4877    1.8338 O   0  0  0  0  0  0  0  0  0  0  0  0
    9.4835    0.3819    1.1879 C   0  0  2  0  0  0  0  0  0  0  0  0
    9.0676    0.2722    0.1727 H   0  0  0  0  0  0  0  0  0  0  0  0
    9.1604   -0.9089    1.9577 C   0  0  0  0  0  0  0  0  0  0  0  0
    9.8637   -1.1723    3.2026 N   0  0  0  0  0  0  0  0  0  0  0  0
    9.6069   -0.3131    4.3600 C   0  0  0  0  0  0  0  0  0  0  0  0
    8.3112   -0.7536    5.0646 C   0  0  1  0  0  0  0  0  0  0  0  0
    8.2853   -2.1674    5.1350 O   0  0  0  0  0  0  0  0  0  0  0  0
    8.2288   -0.2317    6.5001 C   0  0  0  0  0  0  0  0  0  0  0  0
    9.2341   -0.8082    7.2991 O   0  0  0  0  0  0  0  0  0  0  0  0
   10.9823    0.6590    1.0380 C   0  0  1  0  0  0  0  0  0  0  0  0
   11.4459    0.7131    2.0385 H   0  0  0  0  0  0  0  0  0  0  0  0
   11.6445   -0.3787    0.3445 O   0  0  0  0  0  0  0  0  0  0  0  0
   11.2179    2.0049    0.3537 C   0  0  2  0  0  0  0  0  0  0  0  0
   10.8122    1.9297   -0.6782 H   0  0  0  0  0  0  0  0  0  0  0  0
   12.5932    2.3178    0.3232 O   0  0  0  0  0  0  0  0  0  0  0  0
   10.4726    3.1320    1.0738 C   0  0  1  0  0  0  0  0  0  0  0  0
   10.8922    3.2091    2.0909 H   0  0  0  0  0  0  0  0  0  0  0  0
   10.5951    4.4393    0.4389 N   0  0  0  0  0  0  0  0  0  0  0  0
    6.2341    1.8117   -0.4893 C   0  0  2  0  0  0  0  0  0  0  0  0
    5.1667    2.0710   -0.6125 H   0  0  0  0  0  0  0  0  0  0  0  0
    6.3223    0.8425    0.5342 O   0  0  0  0  0  0  0  0  0  0  0  0
    6.7280    1.2253   -1.8244 C   0  0  1  0  0  0  0  0  0  0  0  0
    7.7527    0.8615   -1.6455 H   0  0  0  0  0  0  0  0  0  0  0  0
    5.8610    0.1256   -2.0877 O   0  0  0  0  0  0  0  0  0  0  0  0
    6.1843   -0.8072   -3.0943 C   0  0  1  0  0  0  0  0  0  0  0  0
    5.9981   -0.3765   -4.0909 H   0  0  0  0  0  0  0  0  0  0  0  0
    7.5503   -1.1539   -3.0930 O   0  0  0  0  0  0  0  0  0  0  0  0
    8.0237   -1.8091   -1.9084 C   0  0  2  0  0  0  0  0  0  0  0  0
    7.8493   -1.1515   -1.0376 H   0  0  0  0  0  0  0  0  0  0  0  0
    9.5250   -1.9924   -2.0745 C   0  0  0  0  0  0  0  0  0  0  0  0
   10.2238   -0.7614   -2.0313 O   0  0  0  0  0  0  0  0  0  0  0  0
    7.2349   -3.1006   -1.6677 C   0  0  1  0  0  0  0  0  0  0  0  0
    7.4351   -3.8096   -2.4913 H   0  0  0  0  0  0  0  0  0  0  0  0
    7.6744   -3.7537   -0.4869 O   0  0  0  0  0  0  0  0  0  0  0  0
    5.7170   -2.8094   -1.6129 C   0  0  2  0  0  0  0  0  0  0  0  0
    5.5648   -2.1317   -0.7481 H   0  0  0  0  0  0  0  0  0  0  0  0
    4.8929   -3.9875   -1.4125 N   0  0  0  0  0  0  0  0  0  0  0  0
    5.2803   -2.0308   -2.8685 C   0  0  1  0  0  0  0  0  0  0  0  0
    5.4136   -2.6883   -3.7468 H   0  0  0  0  0  0  0  0  0  0  0  0
    3.9319   -1.6503   -2.8651 O   0  0  0  0  0  0  0  0  0  0  0  0
   11.2286   -0.4472   -4.8203 H   0  0  0  0  0  0  0  0  0  0  0  0
   10.9860    1.1545   -4.7250 H   0  0  0  0  0  0  0  0  0  0  0  0
    8.6676   -0.4543   -5.4440 H   0  0  0  0  0  0  0  0  0  0  0  0
    9.9396   -0.2273   -6.6631 H   0  0  0  0  0  0  0  0  0  0  0  0
    9.8654    3.2279   -6.7205 H   0  0  0  0  0  0  0  0  0  0  0  0
    8.0939    0.7925   -3.7630 H   0  0  0  0  0  0  0  0  0  0  0  0
    7.3018    4.3178   -3.3659 H   0  0  0  0  0  0  0  0  0  0  0  0
    8.5101    3.4531   -2.4073 H   0  0  0  0  0  0  0  0  0  0  0  0
    7.3613    6.1155   -1.5197 H   0  0  0  0  0  0  0  0  0  0  0  0
    8.3508    5.2944   -0.4887 H   0  0  0  0  0  0  0  0  0  0  0  0
    6.6134    3.5031    0.8079 H   0  0  0  0  0  0  0  0  0  0  0  0
    9.3713   -1.7484    1.2766 H   0  0  0  0  0  0  0  0  0  0  0  0
    8.0731   -0.9223    2.1430 H   0  0  0  0  0  0  0  0  0  0  0  0
   10.8573   -1.3088    3.0383 H   0  0  0  0  0  0  0  0  0  0  0  0
    9.5520    0.7617    4.1141 H   0  0  0  0  0  0  0  0  0  0  0  0
   10.4322   -0.4595    5.0736 H   0  0  0  0  0  0  0  0  0  0  0  0
    7.4332   -0.3743    4.4998 H   0  0  0  0  0  0  0  0  0  0  0  0
    8.8428   -2.4475    4.3811 H   0  0  0  0  0  0  0  0  0  0  0  0
    7.2163   -0.4487    6.8974 H   0  0  0  0  0  0  0  0  0  0  0  0
    8.3622    0.8633    6.5164 H   0  0  0  0  0  0  0  0  0  0  0  0
    9.2045   -1.7543    7.0809 H   0  0  0  0  0  0  0  0  0  0  0  0
   11.2260   -0.4797   -0.5404 H   0  0  0  0  0  0  0  0  0  0  0  0
   13.0490    1.4970    0.0805 H   0  0  0  0  0  0  0  0  0  0  0  0
   10.4396    4.3341   -0.5649 H   0  0  0  0  0  0  0  0  0  0  0  0
   11.5570    4.7644    0.5350 H   0  0  0  0  0  0  0  0  0  0  0  0
    7.0525    1.0757    1.1352 H   0  0  0  0  0  0  0  0  0  0  0  0
    9.7197   -2.5312   -3.0209 H   0  0  0  0  0  0  0  0  0  0  0  0
    9.8892   -2.6260   -1.2520 H   0  0  0  0  0  0  0  0  0  0  0  0
   10.2242   -0.3295   -2.9281 H   0  0  0  0  0  0  0  0  0  0  0  0
    7.4080   -3.2149    0.2731 H   0  0  0  0  0  0  0  0  0  0  0  0
    5.3079   -4.5697   -0.6846 H   0  0  0  0  0  0  0  0  0  0  0  0
    4.8681   -4.5570   -2.2600 H   0  0  0  0  0  0  0  0  0  0  0  0
    3.8238   -1.0054   -2.1504 H   0  0  0  0  0  0  0  0  0  0  0  0
  1  2  1  0
  1 60  1  0
  1 61  1  0
  2  3  1  0
  2 62  1  0
  2 63  1  0
  3  4  1  6
  3  5  1  0
  3  6  1  0
  5 64  1  0
  6  7  2  0
  6  8  1  0
  8  9  1  0
  8 65  1  0
  9 10  1  6
  9 11  1  0
  9 41  1  0
 11 12  1  0
 11 66  1  0
 11 67  1  0
 12 13  1  6
 12 14  1  0
 12 15  1  0
 14 68  1  0
 14 69  1  0
 15 16  1  0
 15 38  1  0
 15 70  1  1
 16 17  1  0
 17 18  1  1
 17 19  1  0
 17 35  1  0
 19 20  1  0
 20 21  1  6
 20 22  1  0
 20 29  1  0
 22 23  1  0
 22 71  1  0
 22 72  1  0
 23 24  1  0
 23 73  1  0
 24 25  1  0
 24 74  1  0
 24 75  1  0
 25 26  1  0
 25 27  1  0
 25 76  1  6
 26 77  1  0
 27 28  1  0
 27 78  1  0
 27 79  1  0
 28 80  1  0
 29 30  1  1
 29 31  1  0
 29 32  1  0
 31 81  1  0
 32 33  1  6
 32 34  1  0
 32 35  1  0
 34 82  1  0
 35 36  1  1
 35 37  1  0
 37 83  1  0
 37 84  1  0
 38 39  1  6
 38 40  1  0
 38 41  1  0
 40 85  1  0
 41 42  1  1
 41 43  1  0
 43 44  1  0
 44 45  1  6
 44 46  1  0
 44 57  1  0
 46 47  1  0
 47 48  1  1
 47 49  1  0
 47 51  1  0
 49 50  1  0
 49 86  1  0
 49 87  1  0
 50 88  1  0
 51 52  1  6
 51 53  1  0
 51 54  1  0
 53 89  1  0
 54 55  1  1
 54 56  1  0
 54 57  1  0
 56 90  1  0
 56 91  1  0
 57 58  1  6
 57 59  1  0
 59 92  1  0
M  END

