
     RDKit          3D

 28 29  0  0  0  0  0  0  0  0999 V2000
    2.6563    0.2747   -1.0923 O   0  0  0  0  0  0  0  0  0  0  0  0
    3.5860   -0.2616   -1.6307 C   0  0  0  0  0  0  0  0  0  0  0  0
    3.7796   -0.1220   -2.9627 O   0  0  0  0  0  0  0  0  0  0  0  0
    4.5949   -1.1479   -0.9165 C   0  0  0  0  0  0  0  0  0  0  0  0
    4.4909   -1.0324    0.6078 C   0  0  0  0  0  0  0  0  0  0  0  0
    5.3513   -1.9658    1.3080 N   0  0  0  0  0  0  0  0  0  0  0  0
    6.7017   -1.8346    1.3260 C   0  0  0  0  0  0  0  0  0  0  0  0
    7.3146   -0.9569    0.7242 O   0  0  0  0  0  0  0  0  0  0  0  0
    7.4075   -2.8607    2.1542 C   0  0  0  0  0  0  0  0  0  0  0  0
    8.8174   -2.8528    2.2732 C   0  0  0  0  0  0  0  0  0  0  0  0
    9.3689   -4.1343    3.2829 S   0  0  0  0  0  0  0  0  0  0  0  0
    7.6020   -4.6211    3.4886 C   0  0  0  0  0  0  0  0  0  0  0  0
    7.2152   -5.7209    4.2805 C   0  0  0  0  0  0  0  0  0  0  0  0
    8.0995   -6.6015    5.0148 C   0  0  0  0  0  0  0  0  0  0  0  0
    7.4399   -7.5811    5.6919 C   0  0  0  0  0  0  0  0  0  0  0  0
    5.7031   -7.4764    5.4665 S   0  0  0  0  0  0  0  0  0  0  0  0
    5.8512   -6.1062    4.4540 C   0  0  0  0  0  0  0  0  0  0  0  0
    6.7443   -3.8158    2.8104 N   0  0  0  0  0  0  0  0  0  0  0  0
    4.5840   -0.5854   -3.2370 H   0  0  0  0  0  0  0  0  0  0  0  0
    5.6200   -0.8915   -1.2318 H   0  0  0  0  0  0  0  0  0  0  0  0
    4.4153   -2.1919   -1.2329 H   0  0  0  0  0  0  0  0  0  0  0  0
    3.4526   -1.2051    0.9213 H   0  0  0  0  0  0  0  0  0  0  0  0
    4.7495   -0.0021    0.9015 H   0  0  0  0  0  0  0  0  0  0  0  0
    4.9620   -2.7270    1.8553 H   0  0  0  0  0  0  0  0  0  0  0  0
    9.4859   -2.1361    1.7999 H   0  0  0  0  0  0  0  0  0  0  0  0
    9.1858   -6.4914    5.0243 H   0  0  0  0  0  0  0  0  0  0  0  0
    7.8582   -8.3689    6.3169 H   0  0  0  0  0  0  0  0  0  0  0  0
    4.9866   -5.6135    4.0150 H   0  0  0  0  0  0  0  0  0  0  0  0
  1  2  2  0
  2  3  1  0
  2  4  1  0
  3 19  1  0
  4  5  1  0
  4 20  1  0
  4 21  1  0
  5  6  1  0
  5 22  1  0
  5 23  1  0
  6  7  1  0
  6 24  1  0
  7  8  2  0
  7  9  1  0
  9 10  2  0
  9 18  1  0
 10 11  1  0
 10 25  1  0
 11 12  1  0
 12 13  1  0
 12 18  2  0
 13 14  1  0
 13 17  2  0
 14 15  2  0
 14 26  1  0
 15 16  1  0
 15 27  1  0
 16 17  1  0
 17 28  1  0
M  END

