
     RDKit          3D

 43 44  0  0  0  0  0  0  0  0999 V2000
    4.1598    2.8787    1.5586 C   0  0  0  0  0  0  0  0  0  0  0  0
    3.1808    2.2141    0.9262 C   0  0  0  0  0  0  0  0  0  0  0  0
    1.9825    2.9418    0.3639 C   0  0  0  0  0  0  0  0  0  0  0  0
    3.2905    0.6846    0.7769 C   0  0  1  0  0  0  0  0  0  0  0  0
    2.6136   -0.1080    1.8284 N   0  0  0  0  0  0  0  0  0  0  0  0
    1.4121    0.4009    2.5118 C   0  0  1  0  0  0  0  0  0  0  0  0
    0.1042    0.1053    1.7487 C   0  0  0  0  0  0  0  0  0  0  0  0
   -0.3272   -1.3692    1.7867 C   0  0  0  0  0  0  0  0  0  0  0  0
   -0.3553   -1.9653    3.2031 C   0  0  2  0  0  0  0  0  0  0  0  0
   -1.5511   -1.4595    4.0186 C   0  0  0  0  0  0  0  0  0  0  0  0
   -2.3408   -0.6339    3.6478 O   0  0  0  0  0  0  0  0  0  0  0  0
   -1.6922   -2.0207    5.2454 O   0  0  0  0  0  0  0  0  0  0  0  0
    0.9888   -1.7010    3.9214 C   0  0  0  0  0  0  0  0  0  0  0  0
    1.3355   -0.2074    3.9250 C   0  0  0  0  0  0  0  0  0  0  0  0
    3.0036    0.1951   -0.6498 C   0  0  0  0  0  0  0  0  0  0  0  0
    2.3429   -1.0125   -0.8990 C   0  0  0  0  0  0  0  0  0  0  0  0
    2.1653   -1.4843   -2.2046 C   0  0  0  0  0  0  0  0  0  0  0  0
    2.6626   -0.7546   -3.2767 C   0  0  0  0  0  0  0  0  0  0  0  0
    2.5055   -1.1837   -4.5333 F   0  0  0  0  0  0  0  0  0  0  0  0
    3.3444    0.4440   -3.0403 C   0  0  0  0  0  0  0  0  0  0  0  0
    3.8316    1.1325   -4.0787 F   0  0  0  0  0  0  0  0  0  0  0  0
    3.5158    0.9141   -1.7446 C   0  0  0  0  0  0  0  0  0  0  0  0
    4.1135    3.9614    1.7106 H   0  0  0  0  0  0  0  0  0  0  0  0
    5.0438    2.3650    1.9502 H   0  0  0  0  0  0  0  0  0  0  0  0
    2.0483    4.0207    0.5675 H   0  0  0  0  0  0  0  0  0  0  0  0
    1.0355    2.5749    0.7884 H   0  0  0  0  0  0  0  0  0  0  0  0
    1.9029    2.8040   -0.7260 H   0  0  0  0  0  0  0  0  0  0  0  0
    4.3607    0.4636    0.9262 H   0  0  0  0  0  0  0  0  0  0  0  0
    3.3119   -0.3098    2.5379 H   0  0  0  0  0  0  0  0  0  0  0  0
    1.4837    1.4955    2.6537 H   0  0  0  0  0  0  0  0  0  0  0  0
    0.1996    0.4251    0.6993 H   0  0  0  0  0  0  0  0  0  0  0  0
   -0.6968    0.7170    2.1929 H   0  0  0  0  0  0  0  0  0  0  0  0
    0.3672   -1.9769    1.1861 H   0  0  0  0  0  0  0  0  0  0  0  0
   -1.3211   -1.4695    1.3252 H   0  0  0  0  0  0  0  0  0  0  0  0
   -0.4941   -3.0604    3.1229 H   0  0  0  0  0  0  0  0  0  0  0  0
   -1.0026   -2.6826    5.3959 H   0  0  0  0  0  0  0  0  0  0  0  0
    1.7743   -2.2654    3.3937 H   0  0  0  0  0  0  0  0  0  0  0  0
    0.9755   -2.0855    4.9563 H   0  0  0  0  0  0  0  0  0  0  0  0
    2.2907   -0.0389    4.4533 H   0  0  0  0  0  0  0  0  0  0  0  0
    0.5717    0.3464    4.4970 H   0  0  0  0  0  0  0  0  0  0  0  0
    1.9832   -1.5907   -0.0497 H   0  0  0  0  0  0  0  0  0  0  0  0
    1.6456   -2.4233   -2.4075 H   0  0  0  0  0  0  0  0  0  0  0  0
    4.0648    1.8485   -1.6070 H   0  0  0  0  0  0  0  0  0  0  0  0
  1  2  2  0
  1 23  1  0
  1 24  1  0
  2  3  1  0
  2  4  1  0
  3 25  1  0
  3 26  1  0
  3 27  1  0
  4  5  1  0
  4 15  1  0
  4 28  1  1
  5  6  1  0
  5 29  1  0
  6  7  1  0
  6 14  1  0
  6 30  1  1
  7  8  1  0
  7 31  1  0
  7 32  1  0
  8  9  1  0
  8 33  1  0
  8 34  1  0
  9 10  1  0
  9 13  1  0
  9 35  1  6
 10 11  2  0
 10 12  1  0
 12 36  1  0
 13 14  1  0
 13 37  1  0
 13 38  1  0
 14 39  1  0
 14 40  1  0
 15 16  2  0
 15 22  1  0
 16 17  1  0
 16 41  1  0
 17 18  2  0
 17 42  1  0
 18 19  1  0
 18 20  1  0
 20 21  1  0
 20 22  2  0
 22 43  1  0
M  END

