
     RDKit          3D

 66 71  0  0  0  0  0  0  0  0999 V2000
   -5.9183   -8.4104   -3.8261 C   0  0  0  0  0  0  0  0  0  0  0  0
   -4.5515   -7.7953   -3.5324 C   0  0  0  0  0  0  0  0  0  0  0  0
   -3.6140   -7.9632   -4.6425 N   0  0  0  0  0  0  0  0  0  0  0  0
   -2.9898   -9.2821   -4.7358 C   0  0  0  0  0  0  0  0  0  0  0  0
   -1.6953   -9.2072   -3.8884 C   0  0  0  0  0  0  0  0  0  0  0  0
   -1.2885   -7.7085   -3.9118 C   0  0  1  0  0  0  0  0  0  0  0  0
   -1.0809   -7.0736   -2.5182 C   0  0  0  0  0  0  0  0  0  0  0  0
   -0.2983   -5.7909   -2.8069 C   0  0  0  0  0  0  0  0  0  0  0  0
    0.4813   -6.1336   -4.0026 N   0  0  0  0  0  0  0  0  0  0  0  0
    1.4159   -5.2513   -4.4547 C   0  0  0  0  0  0  0  0  0  0  0  0
    1.5698   -4.1574   -3.9064 O   0  0  0  0  0  0  0  0  0  0  0  0
    2.2779   -5.5927   -5.6188 C   0  0  0  0  0  0  0  0  0  0  0  0
    2.5360   -6.7131   -6.4004 C   0  0  0  0  0  0  0  0  0  0  0  0
    3.5550   -6.3485   -7.3400 C   0  0  0  0  0  0  0  0  0  0  0  0
    4.2173   -7.0536   -8.3678 C   0  0  0  0  0  0  0  0  0  0  0  0
    5.1918   -6.3912   -9.1164 C   0  0  0  0  0  0  0  0  0  0  0  0
    5.9342   -6.9824  -10.1515 N   0  0  0  0  0  0  0  0  0  0  0  0
    5.8250   -8.1823  -10.8079 C   0  0  0  0  0  0  0  0  0  0  0  0
    6.7994   -8.3826  -11.7269 N   0  0  0  0  0  0  0  0  0  0  0  0
    6.7446   -9.5245  -12.3971 C   0  0  0  0  0  0  0  0  0  0  0  0
    5.7472  -10.4839  -12.1935 C   0  0  0  0  0  0  0  0  0  0  0  0
    4.7818  -10.1765  -11.2260 C   0  0  0  0  0  0  0  0  0  0  0  0
    3.6632  -11.1119  -10.9443 C   0  0  0  0  0  0  0  0  0  0  0  0
    2.6072  -10.7725  -10.1698 C   0  0  0  0  0  0  0  0  0  0  0  0
    1.4984  -11.7581   -9.9302 C   0  0  0  0  0  0  0  0  0  0  0  0
    2.0294  -13.1919  -10.0442 C   0  0  0  0  0  0  0  0  0  0  0  0
    2.9707  -13.3056  -11.2217 C   0  0  0  0  0  0  0  0  0  0  0  0
    3.7273  -12.3563  -11.6164 N   0  0  0  0  0  0  0  0  0  0  0  0
    4.8295   -9.0285  -10.5303 N   0  0  0  0  0  0  0  0  0  0  0  0
    5.5007   -5.0272   -8.8324 C   0  0  0  0  0  0  0  0  0  0  0  0
    4.8633   -4.3184   -7.8272 C   0  0  0  0  0  0  0  0  0  0  0  0
    3.8820   -4.9859   -7.0775 C   0  0  0  0  0  0  0  0  0  0  0  0
    3.0941   -4.5643   -6.0407 N   0  0  0  0  0  0  0  0  0  0  0  0
    3.0897   -3.6699   -5.5625 H   0  0  0  0  0  0  0  0  0  0  0  0
    0.0745   -7.4152   -4.5744 C   0  0  0  0  0  0  0  0  0  0  0  0
   -2.4844   -7.0437   -4.6883 C   0  0  0  0  0  0  0  0  0  0  0  0
   -6.6156   -8.2248   -2.9931 H   0  0  0  0  0  0  0  0  0  0  0  0
   -5.8552   -9.5017   -3.9651 H   0  0  0  0  0  0  0  0  0  0  0  0
   -6.3426   -7.9794   -4.7461 H   0  0  0  0  0  0  0  0  0  0  0  0
   -4.1650   -8.2056   -2.5715 H   0  0  0  0  0  0  0  0  0  0  0  0
   -4.6793   -6.7127   -3.3706 H   0  0  0  0  0  0  0  0  0  0  0  0
   -2.7367   -9.4871   -5.7919 H   0  0  0  0  0  0  0  0  0  0  0  0
   -3.6771  -10.0766   -4.4112 H   0  0  0  0  0  0  0  0  0  0  0  0
   -0.9035   -9.8650   -4.2799 H   0  0  0  0  0  0  0  0  0  0  0  0
   -1.8911   -9.5288   -2.8531 H   0  0  0  0  0  0  0  0  0  0  0  0
   -0.4796   -7.7524   -1.8894 H   0  0  0  0  0  0  0  0  0  0  0  0
   -2.0259   -6.8831   -1.9882 H   0  0  0  0  0  0  0  0  0  0  0  0
    0.3670   -5.4802   -1.9872 H   0  0  0  0  0  0  0  0  0  0  0  0
   -0.9582   -4.9301   -3.0165 H   0  0  0  0  0  0  0  0  0  0  0  0
    2.0785   -7.6929   -6.3134 H   0  0  0  0  0  0  0  0  0  0  0  0
    3.9856   -8.0932   -8.5836 H   0  0  0  0  0  0  0  0  0  0  0  0
    6.7157   -6.4408  -10.5029 H   0  0  0  0  0  0  0  0  0  0  0  0
    7.5331   -9.6929  -13.1413 H   0  0  0  0  0  0  0  0  0  0  0  0
    5.7006  -11.4173  -12.7501 H   0  0  0  0  0  0  0  0  0  0  0  0
    2.5438   -9.7578   -9.7727 H   0  0  0  0  0  0  0  0  0  0  0  0
    0.6923  -11.5842  -10.6730 H   0  0  0  0  0  0  0  0  0  0  0  0
    1.0342  -11.5930   -8.9450 H   0  0  0  0  0  0  0  0  0  0  0  0
    1.2159  -13.9290  -10.1234 H   0  0  0  0  0  0  0  0  0  0  0  0
    2.6024  -13.4547   -9.1320 H   0  0  0  0  0  0  0  0  0  0  0  0
    3.0276  -14.2623  -11.7636 H   0  0  0  0  0  0  0  0  0  0  0  0
    6.2662   -4.5278   -9.4334 H   0  0  0  0  0  0  0  0  0  0  0  0
    5.1209   -3.2751   -7.6317 H   0  0  0  0  0  0  0  0  0  0  0  0
    0.8046   -8.2101   -4.3307 H   0  0  0  0  0  0  0  0  0  0  0  0
   -0.0037   -7.3556   -5.6705 H   0  0  0  0  0  0  0  0  0  0  0  0
   -2.1871   -6.8976   -5.7432 H   0  0  0  0  0  0  0  0  0  0  0  0
   -2.7642   -6.0555   -4.2936 H   0  0  0  0  0  0  0  0  0  0  0  0
  1  2  1  0
  1 37  1  0
  1 38  1  0
  1 39  1  0
  2  3  1  0
  2 40  1  0
  2 41  1  0
  3  4  1  0
  3 36  1  0
  4  5  1  0
  4 42  1  0
  4 43  1  0
  6  5  1  1
  5 44  1  0
  5 45  1  0
  6  7  1  0
  6 35  1  0
  6 36  1  0
  7  8  1  0
  7 46  1  0
  7 47  1  0
  8  9  1  0
  8 48  1  0
  8 49  1  0
  9 10  1  0
  9 35  1  0
 10 11  2  0
 10 12  1  0
 12 13  2  0
 12 33  1  0
 13 14  1  0
 13 50  1  0
 14 15  2  0
 14 32  1  0
 15 16  1  0
 15 51  1  0
 16 17  1  0
 16 30  2  0
 17 18  1  0
 17 52  1  0
 18 19  2  0
 18 29  1  0
 19 20  1  0
 20 21  2  0
 20 53  1  0
 21 22  1  0
 21 54  1  0
 22 23  1  0
 22 29  2  0
 23 24  2  0
 23 28  1  0
 24 25  1  0
 24 55  1  0
 25 26  1  0
 25 56  1  0
 25 57  1  0
 26 27  1  0
 26 58  1  0
 26 59  1  0
 27 28  2  0
 27 60  1  0
 30 31  1  0
 30 61  1  0
 31 32  2  0
 31 62  1  0
 32 33  1  0
 33 34  1  0
 35 63  1  0
 35 64  1  0
 36 65  1  0
 36 66  1  0
M  END

