
     RDKit          3D

 50 52  0  0  0  0  0  0  0  0999 V2000
    4.4044   -1.4576   -0.2208 C   0  0  0  0  0  0  0  0  0  0  0  0
    4.0456   -0.1676    0.4964 C   0  0  0  0  0  0  0  0  0  0  0  0
    3.6300   -0.1854    1.6399 O   0  0  0  0  0  0  0  0  0  0  0  0
    4.2136    1.1291   -0.2341 C   0  0  0  0  0  0  0  0  0  0  0  0
    4.6922    1.2306   -1.5480 C   0  0  0  0  0  0  0  0  0  0  0  0
    4.8325    2.4722   -2.1689 C   0  0  0  0  0  0  0  0  0  0  0  0
    4.4889    3.6737   -1.5137 C   0  0  0  0  0  0  0  0  0  0  0  0
    4.5755    4.9260   -2.1251 N   0  0  0  0  0  0  0  0  0  0  0  0
    4.7271    4.9995   -3.5741 C   0  0  0  0  0  0  0  0  0  0  0  0
    4.2547    6.3585   -4.0932 C   0  0  0  0  0  0  0  0  0  0  0  0
    4.9214    7.4481   -3.3930 N   0  0  0  0  0  0  0  0  0  0  0  0
    5.5202    8.4546   -4.1140 C   0  0  0  0  0  0  0  0  0  0  0  0
    5.5444    8.4455   -5.3368 O   0  0  0  0  0  0  0  0  0  0  0  0
    6.1668    9.5935   -3.3315 C   0  0  0  0  0  0  0  0  0  0  0  0
    6.7740   10.6310   -4.2637 C   0  0  0  0  0  0  0  0  0  0  0  0
    7.3581   11.6293   -3.4450 O   0  0  0  0  0  0  0  0  0  0  0  0
    7.9837   12.6899   -4.0210 C   0  0  0  0  0  0  0  0  0  0  0  0
    8.5426   13.6309   -3.1377 C   0  0  0  0  0  0  0  0  0  0  0  0
    9.2055   14.7498   -3.6348 C   0  0  0  0  0  0  0  0  0  0  0  0
    9.3234   14.9523   -5.0166 C   0  0  0  0  0  0  0  0  0  0  0  0
    8.7669   14.0174   -5.8899 C   0  0  0  0  0  0  0  0  0  0  0  0
    8.0970   12.8863   -5.4060 C   0  0  0  0  0  0  0  0  0  0  0  0
    4.7969    7.3754   -1.9451 C   0  0  0  0  0  0  0  0  0  0  0  0
    5.2694    6.0146   -1.4322 C   0  0  0  0  0  0  0  0  0  0  0  0
    3.9895    3.5364   -0.1926 C   0  0  0  0  0  0  0  0  0  0  0  0
    3.5968    4.6440    0.4710 F   0  0  0  0  0  0  0  0  0  0  0  0
    3.8636    2.3155    0.4371 C   0  0  0  0  0  0  0  0  0  0  0  0
    4.2258   -2.2994    0.4600 H   0  0  0  0  0  0  0  0  0  0  0  0
    5.4616   -1.4575   -0.5322 H   0  0  0  0  0  0  0  0  0  0  0  0
    3.7954   -1.5879   -1.1300 H   0  0  0  0  0  0  0  0  0  0  0  0
    4.9794    0.3365   -2.1039 H   0  0  0  0  0  0  0  0  0  0  0  0
    5.2337    2.5107   -3.1816 H   0  0  0  0  0  0  0  0  0  0  0  0
    4.1146    4.2149   -4.0406 H   0  0  0  0  0  0  0  0  0  0  0  0
    5.7813    4.8351   -3.8839 H   0  0  0  0  0  0  0  0  0  0  0  0
    3.1614    6.4399   -3.9454 H   0  0  0  0  0  0  0  0  0  0  0  0
    4.4706    6.4641   -5.1634 H   0  0  0  0  0  0  0  0  0  0  0  0
    6.9548    9.2050   -2.6646 H   0  0  0  0  0  0  0  0  0  0  0  0
    5.4256   10.0832   -2.6777 H   0  0  0  0  0  0  0  0  0  0  0  0
    5.9969   11.0602   -4.9195 H   0  0  0  0  0  0  0  0  0  0  0  0
    7.5289   10.1638   -4.9191 H   0  0  0  0  0  0  0  0  0  0  0  0
    8.4415   13.4569   -2.0643 H   0  0  0  0  0  0  0  0  0  0  0  0
    9.6355   15.4730   -2.9366 H   0  0  0  0  0  0  0  0  0  0  0  0
    9.8440   15.8307   -5.4046 H   0  0  0  0  0  0  0  0  0  0  0  0
    8.8500   14.1616   -6.9706 H   0  0  0  0  0  0  0  0  0  0  0  0
    7.6719   12.1719   -6.1112 H   0  0  0  0  0  0  0  0  0  0  0  0
    3.7390    7.5174   -1.6526 H   0  0  0  0  0  0  0  0  0  0  0  0
    5.3860    8.1656   -1.4658 H   0  0  0  0  0  0  0  0  0  0  0  0
    5.0823    5.9510   -0.3555 H   0  0  0  0  0  0  0  0  0  0  0  0
    6.3651    5.9291   -1.5952 H   0  0  0  0  0  0  0  0  0  0  0  0
    3.4682    2.2630    1.4528 H   0  0  0  0  0  0  0  0  0  0  0  0
  1  2  1  0
  1 28  1  0
  1 29  1  0
  1 30  1  0
  2  3  2  0
  2  4  1  0
  4  5  2  0
  4 27  1  0
  5  6  1  0
  5 31  1  0
  6  7  2  0
  6 32  1  0
  7  8  1  0
  7 25  1  0
  8  9  1  0
  8 24  1  0
  9 10  1  0
  9 33  1  0
  9 34  1  0
 10 11  1  0
 10 35  1  0
 10 36  1  0
 11 12  1  0
 11 23  1  0
 12 13  2  0
 12 14  1  0
 14 15  1  0
 14 37  1  0
 14 38  1  0
 15 16  1  0
 15 39  1  0
 15 40  1  0
 16 17  1  0
 17 18  2  0
 17 22  1  0
 18 19  1  0
 18 41  1  0
 19 20  2  0
 19 42  1  0
 20 21  1  0
 20 43  1  0
 21 22  2  0
 21 44  1  0
 22 45  1  0
 23 24  1  0
 23 46  1  0
 23 47  1  0
 24 48  1  0
 24 49  1  0
 25 26  1  0
 25 27  2  0
 27 50  1  0
M  END

