
     RDKit          3D

 47 49  0  0  0  0  0  0  0  0999 V2000
    0.8570    0.0721   -0.7223 C   0  0  0  0  0  0  0  0  0  0  0  0
    2.1149   -0.1406   -1.3238 O   0  0  0  0  0  0  0  0  0  0  0  0
    2.6551   -1.3824   -1.3220 C   0  0  0  0  0  0  0  0  0  0  0  0
    3.9094   -1.5169   -1.9428 C   0  0  0  0  0  0  0  0  0  0  0  0
    4.5361   -2.7549   -1.9879 C   0  0  0  0  0  0  0  0  0  0  0  0
    3.9469   -3.9069   -1.4208 C   0  0  0  0  0  0  0  0  0  0  0  0
    4.6573   -5.1825   -1.5007 C   0  0  0  0  0  0  0  0  0  0  0  0
    4.2762   -6.3863   -1.0293 C   0  0  0  0  0  0  0  0  0  0  0  0
    5.1536   -7.5747   -1.2167 C   0  0  0  0  0  0  0  0  0  0  0  0
    6.2360   -7.5305   -1.7925 O   0  0  0  0  0  0  0  0  0  0  0  0
    4.6607   -8.7344   -0.6807 N   0  0  0  0  0  0  0  0  0  0  0  0
    5.3657   -9.9907   -0.8112 C   0  0  1  0  0  0  0  0  0  0  0  0
    6.2694  -10.2919    0.4016 C   0  0  0  0  0  0  0  0  0  0  0  0
    4.3286  -11.0959   -0.9757 C   0  0  0  0  0  0  0  0  0  0  0  0
    3.2045  -10.9994   -0.5184 O   0  0  0  0  0  0  0  0  0  0  0  0
    4.6874  -12.2734   -1.6270 N   0  0  0  0  0  0  0  0  0  0  0  0
    5.8138  -12.6072   -2.3666 C   0  0  0  0  0  0  0  0  0  0  0  0
    6.9205  -11.9356   -2.4257 N   0  0  0  0  0  0  0  0  0  0  0  0
    7.8343  -12.5189   -3.2804 C   0  0  0  0  0  0  0  0  0  0  0  0
    9.1571  -11.8852   -3.4904 C   0  0  1  0  0  0  0  0  0  0  0  0
    9.3059  -10.3760   -3.4379 C   0  0  0  0  0  0  0  0  0  0  0  0
    9.8802  -11.2145   -2.3370 C   0  0  0  0  0  0  0  0  0  0  0  0
    7.4056  -13.6797   -3.8709 C   0  0  0  0  0  0  0  0  0  0  0  0
    5.7851  -14.0627   -3.3591 S   0  0  0  0  0  0  0  0  0  0  0  0
    2.6912   -3.7504   -0.8042 C   0  0  0  0  0  0  0  0  0  0  0  0
    2.0477   -2.5148   -0.7497 C   0  0  0  0  0  0  0  0  0  0  0  0
    0.6275    1.1388   -0.8470 H   0  0  0  0  0  0  0  0  0  0  0  0
    0.8711   -0.1667    0.3564 H   0  0  0  0  0  0  0  0  0  0  0  0
    0.0631   -0.5234   -1.2081 H   0  0  0  0  0  0  0  0  0  0  0  0
    4.3685   -0.6293   -2.3824 H   0  0  0  0  0  0  0  0  0  0  0  0
    5.5113   -2.8439   -2.4745 H   0  0  0  0  0  0  0  0  0  0  0  0
    5.6280   -5.1652   -2.0096 H   0  0  0  0  0  0  0  0  0  0  0  0
    3.3277   -6.5271   -0.5013 H   0  0  0  0  0  0  0  0  0  0  0  0
    3.7399   -8.7689   -0.2560 H   0  0  0  0  0  0  0  0  0  0  0  0
    6.0048   -9.9314   -1.7003 H   0  0  0  0  0  0  0  0  0  0  0  0
    5.6723  -10.3527    1.3251 H   0  0  0  0  0  0  0  0  0  0  0  0
    7.0032   -9.4795    0.5050 H   0  0  0  0  0  0  0  0  0  0  0  0
    6.8163  -11.2356    0.2619 H   0  0  0  0  0  0  0  0  0  0  0  0
    3.9195  -12.9399   -1.6422 H   0  0  0  0  0  0  0  0  0  0  0  0
    9.7830  -12.4135   -4.2150 H   0  0  0  0  0  0  0  0  0  0  0  0
    8.4118   -9.7873   -3.2144 H   0  0  0  0  0  0  0  0  0  0  0  0
    9.9888   -9.9158   -4.1577 H   0  0  0  0  0  0  0  0  0  0  0  0
    9.3670  -11.2025   -1.3720 H   0  0  0  0  0  0  0  0  0  0  0  0
   10.9648  -11.3445   -2.2794 H   0  0  0  0  0  0  0  0  0  0  0  0
    7.9402  -14.3265   -4.5630 H   0  0  0  0  0  0  0  0  0  0  0  0
    2.1970   -4.6136   -0.3527 H   0  0  0  0  0  0  0  0  0  0  0  0
    1.0757   -2.4427   -0.2614 H   0  0  0  0  0  0  0  0  0  0  0  0
  1  2  1  0
  1 27  1  0
  1 28  1  0
  1 29  1  0
  2  3  1  0
  3  4  2  0
  3 26  1  0
  4  5  1  0
  4 30  1  0
  5  6  2  0
  5 31  1  0
  6  7  1  0
  6 25  1  0
  7  8  2  0
  7 32  1  0
  8  9  1  0
  8 33  1  0
  9 10  2  0
  9 11  1  0
 11 12  1  0
 11 34  1  0
 12 13  1  0
 12 14  1  0
 12 35  1  6
 13 36  1  0
 13 37  1  0
 13 38  1  0
 14 15  2  0
 14 16  1  0
 16 17  1  0
 16 39  1  0
 17 18  2  0
 17 24  1  0
 18 19  1  0
 19 20  1  0
 19 23  2  0
 20 21  1  0
 20 22  1  0
 20 40  1  6
 21 22  1  0
 21 41  1  0
 21 42  1  0
 22 43  1  0
 22 44  1  0
 23 24  1  0
 23 45  1  0
 25 26  2  0
 25 46  1  0
 26 47  1  0
M  END

