
     RDKit          3D

 59 62  0  0  0  0  0  0  0  0999 V2000
    3.5729   -6.1503   -1.6600 C   0  0  0  0  0  0  0  0  0  0  0  0
    3.2440   -5.3192   -0.5574 O   0  0  0  0  0  0  0  0  0  0  0  0
    3.6824   -4.0266   -0.6173 C   0  0  0  0  0  0  0  0  0  0  0  0
    4.7875   -3.6554    0.1412 C   0  0  0  0  0  0  0  0  0  0  0  0
    5.2642   -2.3075    0.1890 C   0  0  0  0  0  0  0  0  0  0  0  0
    6.4366   -1.9868    0.9405 C   0  0  0  0  0  0  0  0  0  0  0  0
    7.2840   -2.9923    1.2742 O   0  0  0  0  0  0  0  0  0  0  0  0
    6.8259   -0.6961    1.4244 C   0  0  0  0  0  0  0  0  0  0  0  0
    8.1422   -0.4466    1.8137 C   0  0  0  0  0  0  0  0  0  0  0  0
    9.2256   -0.9943    1.7376 O   0  0  0  0  0  0  0  0  0  0  0  0
    8.0683    1.0380    2.5463 C   0  0  0  0  0  0  0  0  0  0  0  0
    9.0225    1.6167    2.9926 O   0  0  0  0  0  0  0  0  0  0  0  0
    6.7828    1.4143    2.4577 N   0  0  0  0  0  0  0  0  0  0  0  0
    6.3526    2.7344    2.8289 C   0  0  0  0  0  0  0  0  0  0  0  0
    5.6131    2.9056    4.0051 C   0  0  0  0  0  0  0  0  0  0  0  0
    5.1699    4.1770    4.3727 C   0  0  0  0  0  0  0  0  0  0  0  0
    5.4747    5.2740    3.5639 C   0  0  0  0  0  0  0  0  0  0  0  0
    6.2197    5.0969    2.3958 C   0  0  0  0  0  0  0  0  0  0  0  0
    6.6751    3.8302    2.0002 C   0  0  0  0  0  0  0  0  0  0  0  0
    7.5055    3.6602    0.7534 C   0  0  0  0  0  0  0  0  0  0  0  0
    5.8768    0.4143    1.8271 C   0  0  2  0  0  0  0  0  0  0  0  0
    4.7429   -0.0006    2.7503 C   0  0  0  0  0  0  0  0  0  0  0  0
    3.4358    0.4493    2.5349 C   0  0  0  0  0  0  0  0  0  0  0  0
    2.3863    0.0971    3.3818 C   0  0  0  0  0  0  0  0  0  0  0  0
    2.6079   -0.7335    4.5078 C   0  0  0  0  0  0  0  0  0  0  0  0
    1.5783   -1.0895    5.3577 N   0  0  0  0  0  0  0  0  0  0  0  0
    0.2235   -0.6668    5.0686 C   0  0  0  0  0  0  0  0  0  0  0  0
    1.8284   -1.9893    6.4649 C   0  0  0  0  0  0  0  0  0  0  0  0
    3.9356   -1.1909    4.7204 C   0  0  0  0  0  0  0  0  0  0  0  0
    4.9659   -0.8326    3.8574 C   0  0  0  0  0  0  0  0  0  0  0  0
    4.5500   -1.3480   -0.5913 C   0  0  0  0  0  0  0  0  0  0  0  0
    3.4507   -1.7147   -1.3488 C   0  0  0  0  0  0  0  0  0  0  0  0
    3.0027   -3.0465   -1.3735 C   0  0  0  0  0  0  0  0  0  0  0  0
    1.5836   -3.4705   -2.2997 Cl  0  0  0  0  0  0  0  0  0  0  0  0
    3.1699   -7.1482   -1.4371 H   0  0  0  0  0  0  0  0  0  0  0  0
    4.6682   -6.2264   -1.7905 H   0  0  0  0  0  0  0  0  0  0  0  0
    3.1240   -5.7852   -2.5990 H   0  0  0  0  0  0  0  0  0  0  0  0
    5.2340   -4.4352    0.7623 H   0  0  0  0  0  0  0  0  0  0  0  0
    7.1433   -3.7390    0.6737 H   0  0  0  0  0  0  0  0  0  0  0  0
    5.3912    2.0367    4.6251 H   0  0  0  0  0  0  0  0  0  0  0  0
    4.5920    4.3073    5.2904 H   0  0  0  0  0  0  0  0  0  0  0  0
    5.1341    6.2742    3.8434 H   0  0  0  0  0  0  0  0  0  0  0  0
    6.4577    5.9613    1.7701 H   0  0  0  0  0  0  0  0  0  0  0  0
    7.4707    4.5650    0.1305 H   0  0  0  0  0  0  0  0  0  0  0  0
    7.1646    2.8099    0.1420 H   0  0  0  0  0  0  0  0  0  0  0  0
    8.5611    3.4680    1.0092 H   0  0  0  0  0  0  0  0  0  0  0  0
    5.4317    0.9259    0.9576 H   0  0  0  0  0  0  0  0  0  0  0  0
    3.2214    1.0918    1.6756 H   0  0  0  0  0  0  0  0  0  0  0  0
    1.3880    0.4696    3.1567 H   0  0  0  0  0  0  0  0  0  0  0  0
   -0.1406   -1.0495    4.0960 H   0  0  0  0  0  0  0  0  0  0  0  0
    0.1287    0.4343    5.0473 H   0  0  0  0  0  0  0  0  0  0  0  0
   -0.4501   -1.0418    5.8497 H   0  0  0  0  0  0  0  0  0  0  0  0
    2.1791   -2.9851    6.1323 H   0  0  0  0  0  0  0  0  0  0  0  0
    0.9007   -2.1336    7.0334 H   0  0  0  0  0  0  0  0  0  0  0  0
    2.5857   -1.5868    7.1617 H   0  0  0  0  0  0  0  0  0  0  0  0
    4.1651   -1.8455    5.5603 H   0  0  0  0  0  0  0  0  0  0  0  0
    5.9703   -1.2215    4.0461 H   0  0  0  0  0  0  0  0  0  0  0  0
    4.8990   -0.3173   -0.6378 H   0  0  0  0  0  0  0  0  0  0  0  0
    2.9222   -0.9722   -1.9498 H   0  0  0  0  0  0  0  0  0  0  0  0
  1  2  1  0
  1 35  1  0
  1 36  1  0
  1 37  1  0
  2  3  1  0
  3  4  2  0
  3 33  1  0
  4  5  1  0
  4 38  1  0
  5  6  1  0
  5 31  2  0
  6  7  1  0
  6  8  2  0
  7 39  1  0
  8  9  1  0
  8 21  1  0
  9 10  2  0
  9 11  1  0
 11 12  2  0
 11 13  1  0
 13 14  1  0
 13 21  1  0
 14 15  2  0
 14 19  1  0
 15 16  1  0
 15 40  1  0
 16 17  2  0
 16 41  1  0
 17 18  1  0
 17 42  1  0
 18 19  2  0
 18 43  1  0
 19 20  1  0
 20 44  1  0
 20 45  1  0
 20 46  1  0
 21 22  1  0
 21 47  1  6
 22 23  2  0
 22 30  1  0
 23 24  1  0
 23 48  1  0
 24 25  2  0
 24 49  1  0
 25 26  1  0
 25 29  1  0
 26 27  1  0
 26 28  1  0
 27 50  1  0
 27 51  1  0
 27 52  1  0
 28 53  1  0
 28 54  1  0
 28 55  1  0
 29 30  2  0
 29 56  1  0
 30 57  1  0
 31 32  1  0
 31 58  1  0
 32 33  2  0
 32 59  1  0
 33 34  1  0
M  END

