
     RDKit          3D

167179  0  0  0  0  0  0  0  0999 V2000
    0.3709   -1.9210   -3.2307 C   0  0  0  0  0  0  0  0  0  0  0  0
    1.6798   -2.5487   -2.7501 C   0  0  0  0  0  0  0  0  0  0  0  0
    2.8534   -1.5639   -2.7131 C   0  0  0  0  0  0  0  0  0  0  0  0
    4.1640   -2.1970   -2.2338 C   0  0  0  0  0  0  0  0  0  0  0  0
    5.3932   -1.2713   -2.2883 C   0  0  1  0  0  0  0  0  0  0  0  0
    5.2708    0.0034   -1.4219 C   0  0  0  0  0  0  0  0  0  0  0  0
    5.0504   -0.2128    0.0790 C   0  0  0  0  0  0  0  0  0  0  0  0
    6.6982   -2.0270   -1.9496 C   0  0  0  0  0  0  0  0  0  0  0  0
    7.0640   -3.0772   -2.8882 N   0  0  0  0  0  0  0  0  0  0  0  0
    7.6620   -2.8646   -4.1220 C   0  0  0  0  0  0  0  0  0  0  0  0
    8.0246   -1.6610   -4.7321 C   0  0  0  0  0  0  0  0  0  0  0  0
    8.6355   -1.7223   -5.9967 C   0  0  0  0  0  0  0  0  0  0  0  0
    9.0185   -0.5029   -6.6513 C   0  0  0  0  0  0  0  0  0  0  0  0
    9.3275    0.4840   -7.1806 N   0  0  0  0  0  0  0  0  0  0  0  0
    8.8769   -2.9644   -6.6356 C   0  0  0  0  0  0  0  0  0  0  0  0
    8.5163   -4.1558   -6.0165 C   0  0  0  0  0  0  0  0  0  0  0  0
    7.9072   -4.1202   -4.7531 C   0  0  0  0  0  0  0  0  0  0  0  0
    7.4329   -5.1336   -3.8412 C   0  0  0  0  0  0  0  0  0  0  0  0
    7.4018   -6.5370   -3.8780 C   0  0  0  0  0  0  0  0  0  0  0  0
    6.8755   -7.2363   -2.8015 C   0  0  0  0  0  0  0  0  0  0  0  0
    6.3650   -6.5525   -1.6617 C   0  0  0  0  0  0  0  0  0  0  0  0
    5.8292   -7.2939   -0.5683 C   0  0  0  0  0  0  0  0  0  0  0  0
    5.3713   -7.9339    0.3665 C   0  0  0  0  0  0  0  0  0  0  0  0
    4.8295   -8.6536    1.4677 C   0  0  0  0  0  0  0  0  0  0  0  0
    4.2479   -7.9437    2.5414 C   0  0  0  0  0  0  0  0  0  0  0  0
    3.7069   -8.6066    3.6326 C   0  0  0  0  0  0  0  0  0  0  0  0
    3.7190  -10.0142    3.7081 C   0  0  0  0  0  0  0  0  0  0  0  0
    3.1658  -10.7192    4.8254 C   0  0  0  0  0  0  0  0  0  0  0  0
    3.1856  -12.0848    4.8828 C   0  0  0  0  0  0  0  0  0  0  0  0
    3.7623  -12.8657    3.8304 C   0  0  0  0  0  0  0  0  0  0  0  0
    3.7937  -14.2930    3.8785 C   0  0  0  0  0  0  0  0  0  0  0  0
    3.2438  -15.0116    4.9787 C   0  0  0  0  0  0  0  0  0  0  0  0
    2.7801  -15.6515    5.9101 C   0  0  0  0  0  0  0  0  0  0  0  0
    2.2492  -16.4114    6.9937 C   0  0  0  0  0  0  0  0  0  0  0  0
    2.4159  -17.8252    7.0142 C   0  0  0  0  0  0  0  0  0  0  0  0
    1.9188  -18.5894    8.0608 C   0  0  0  0  0  0  0  0  0  0  0  0
    1.2388  -17.9578    9.1144 C   0  0  0  0  0  0  0  0  0  0  0  0
    0.6291  -18.4246   10.3366 C   0  0  0  0  0  0  0  0  0  0  0  0
    0.4867  -19.6893   10.9271 C   0  0  0  0  0  0  0  0  0  0  0  0
   -0.1558  -19.8036   12.1540 C   0  0  0  0  0  0  0  0  0  0  0  0
   -0.6626  -18.6514   12.8055 C   0  0  0  0  0  0  0  0  0  0  0  0
   -1.3221  -18.7872   14.0740 C   0  0  0  0  0  0  0  0  0  0  0  0
   -1.8563  -18.8969   15.0998 N   0  0  0  0  0  0  0  0  0  0  0  0
   -0.5337  -17.3744   12.2326 C   0  0  0  0  0  0  0  0  0  0  0  0
    0.1109  -17.2701   10.9975 C   0  0  0  0  0  0  0  0  0  0  0  0
    0.3761  -16.1440   10.2291 N   0  0  0  0  0  0  0  0  0  0  0  0
    0.0343  -14.7646   10.5462 C   0  0  0  0  0  0  0  0  0  0  0  0
   -1.1972  -14.2123    9.7912 C   0  0  1  0  0  0  0  0  0  0  0  0
   -2.5196  -14.8730   10.2412 C   0  0  0  0  0  0  0  0  0  0  0  0
   -3.0404  -14.4694   11.6242 C   0  0  0  0  0  0  0  0  0  0  0  0
   -1.2495  -12.6729    9.8761 C   0  0  0  0  0  0  0  0  0  0  0  0
   -0.2297  -11.9315    9.0029 C   0  0  0  0  0  0  0  0  0  0  0  0
   -0.3322  -10.4061    9.1108 C   0  0  0  0  0  0  0  0  0  0  0  0
    0.6611   -9.6601    8.2188 C   0  0  0  0  0  0  0  0  0  0  0  0
    1.0644  -16.5445    9.0895 C   0  0  0  0  0  0  0  0  0  0  0  0
    1.5640  -15.7656    8.0422 C   0  0  0  0  0  0  0  0  0  0  0  0
    4.3808  -15.0067    2.8217 C   0  0  0  0  0  0  0  0  0  0  0  0
    4.9412  -14.3657    1.7057 C   0  0  0  0  0  0  0  0  0  0  0  0
    5.5263  -15.1557    0.6753 C   0  0  0  0  0  0  0  0  0  0  0  0
    6.0260  -15.8615   -0.1874 C   0  0  0  0  0  0  0  0  0  0  0  0
    6.6108  -16.6965   -1.1843 C   0  0  0  0  0  0  0  0  0  0  0  0
    7.2285  -16.1198   -2.3297 C   0  0  0  0  0  0  0  0  0  0  0  0
    7.8117  -16.9164   -3.3056 C   0  0  0  0  0  0  0  0  0  0  0  0
    7.7888  -18.3130   -3.1614 C   0  0  0  0  0  0  0  0  0  0  0  0
    8.2999  -19.4110   -3.9466 C   0  0  0  0  0  0  0  0  0  0  0  0
    9.0100  -19.4910   -5.1541 C   0  0  0  0  0  0  0  0  0  0  0  0
    9.3795  -20.7357   -5.6496 C   0  0  0  0  0  0  0  0  0  0  0  0
    9.0434  -21.9159   -4.9405 C   0  0  0  0  0  0  0  0  0  0  0  0
    9.4359  -23.1937   -5.4655 C   0  0  0  0  0  0  0  0  0  0  0  0
    9.7528  -24.2275   -5.8904 N   0  0  0  0  0  0  0  0  0  0  0  0
    8.3301  -21.8611   -3.7306 C   0  0  0  0  0  0  0  0  0  0  0  0
    7.9596  -20.6056   -3.2425 C   0  0  0  0  0  0  0  0  0  0  0  0
    7.2680  -20.2744   -2.0847 N   0  0  0  0  0  0  0  0  0  0  0  0
    6.7451  -21.1905   -1.0806 C   0  0  0  0  0  0  0  0  0  0  0  0
    5.2183  -21.4261   -1.1543 C   0  0  1  0  0  0  0  0  0  0  0  0
    4.7951  -22.2121   -2.4151 C   0  0  0  0  0  0  0  0  0  0  0  0
    5.1472  -23.7032   -2.4341 C   0  0  0  0  0  0  0  0  0  0  0  0
    4.6949  -22.0692    0.1463 C   0  0  0  0  0  0  0  0  0  0  0  0
    4.6341  -21.1352    1.3613 C   0  0  0  0  0  0  0  0  0  0  0  0
    4.0717  -21.8051    2.6197 C   0  0  0  0  0  0  0  0  0  0  0  0
    4.0038  -20.8729    3.8303 C   0  0  0  0  0  0  0  0  0  0  0  0
    7.1634  -18.8898   -2.0191 C   0  0  0  0  0  0  0  0  0  0  0  0
    6.5775  -18.0968   -1.0292 C   0  0  0  0  0  0  0  0  0  0  0  0
    4.9167  -12.9394    1.6301 C   0  0  0  0  0  0  0  0  0  0  0  0
    5.4665  -12.2273    0.5174 C   0  0  0  0  0  0  0  0  0  0  0  0
    5.4398  -10.8619    0.4591 C   0  0  0  0  0  0  0  0  0  0  0  0
    4.8614  -10.0807    1.5112 C   0  0  0  0  0  0  0  0  0  0  0  0
    4.3026  -10.7623    2.6375 C   0  0  0  0  0  0  0  0  0  0  0  0
    4.3268  -12.1955    2.6989 C   0  0  0  0  0  0  0  0  0  0  0  0
    6.3867   -5.1445   -1.6140 C   0  0  0  0  0  0  0  0  0  0  0  0
    6.9211   -4.4483   -2.7010 C   0  0  0  0  0  0  0  0  0  0  0  0
   -0.4489   -2.6567   -3.2458 H   0  0  0  0  0  0  0  0  0  0  0  0
    0.4719   -1.5151   -4.2513 H   0  0  0  0  0  0  0  0  0  0  0  0
    0.0592   -1.0895   -2.5762 H   0  0  0  0  0  0  0  0  0  0  0  0
    1.9419   -3.4015   -3.4023 H   0  0  0  0  0  0  0  0  0  0  0  0
    1.5353   -2.9783   -1.7419 H   0  0  0  0  0  0  0  0  0  0  0  0
    2.5823   -0.7109   -2.0655 H   0  0  0  0  0  0  0  0  0  0  0  0
    3.0032   -1.1381   -3.7229 H   0  0  0  0  0  0  0  0  0  0  0  0
    4.3688   -3.0847   -2.8562 H   0  0  0  0  0  0  0  0  0  0  0  0
    4.0311   -2.5809   -1.2056 H   0  0  0  0  0  0  0  0  0  0  0  0
    5.4916   -0.9253   -3.3334 H   0  0  0  0  0  0  0  0  0  0  0  0
    4.4476    0.6192   -1.8196 H   0  0  0  0  0  0  0  0  0  0  0  0
    6.1828    0.6093   -1.5689 H   0  0  0  0  0  0  0  0  0  0  0  0
    4.1113   -0.7504    0.2854 H   0  0  0  0  0  0  0  0  0  0  0  0
    4.9932    0.7540    0.6034 H   0  0  0  0  0  0  0  0  0  0  0  0
    5.8692   -0.7839    0.5465 H   0  0  0  0  0  0  0  0  0  0  0  0
    6.6323   -2.4830   -0.9511 H   0  0  0  0  0  0  0  0  0  0  0  0
    7.5340   -1.3083   -1.9054 H   0  0  0  0  0  0  0  0  0  0  0  0
    7.8465   -0.6947   -4.2601 H   0  0  0  0  0  0  0  0  0  0  0  0
    9.3507   -2.9725   -7.6183 H   0  0  0  0  0  0  0  0  0  0  0  0
    8.7103   -5.1100   -6.5118 H   0  0  0  0  0  0  0  0  0  0  0  0
    7.7902   -7.0764   -4.7453 H   0  0  0  0  0  0  0  0  0  0  0  0
    6.8451   -8.3269   -2.8162 H   0  0  0  0  0  0  0  0  0  0  0  0
    4.2296   -6.8531    2.4989 H   0  0  0  0  0  0  0  0  0  0  0  0
    3.2620   -8.0349    4.4512 H   0  0  0  0  0  0  0  0  0  0  0  0
    2.7232  -10.1414    5.6408 H   0  0  0  0  0  0  0  0  0  0  0  0
    2.7608  -12.6078    5.7410 H   0  0  0  0  0  0  0  0  0  0  0  0
    2.9480  -18.3020    6.1895 H   0  0  0  0  0  0  0  0  0  0  0  0
    2.0610  -19.6728    8.0638 H   0  0  0  0  0  0  0  0  0  0  0  0
    0.8791  -20.5794   10.4299 H   0  0  0  0  0  0  0  0  0  0  0  0
   -0.2757  -20.7786   12.6287 H   0  0  0  0  0  0  0  0  0  0  0  0
   -0.9354  -16.5055   12.7527 H   0  0  0  0  0  0  0  0  0  0  0  0
    0.9177  -14.1461   10.3228 H   0  0  0  0  0  0  0  0  0  0  0  0
   -0.1168  -14.6921   11.6335 H   0  0  0  0  0  0  0  0  0  0  0  0
   -1.0596  -14.4791    8.7283 H   0  0  0  0  0  0  0  0  0  0  0  0
   -2.4033  -15.9692   10.1954 H   0  0  0  0  0  0  0  0  0  0  0  0
   -3.2910  -14.6289    9.4900 H   0  0  0  0  0  0  0  0  0  0  0  0
   -2.3122  -14.6667   12.4282 H   0  0  0  0  0  0  0  0  0  0  0  0
   -3.9521  -15.0342   11.8740 H   0  0  0  0  0  0  0  0  0  0  0  0
   -3.2952  -13.3993   11.6723 H   0  0  0  0  0  0  0  0  0  0  0  0
   -1.1307  -12.3520   10.9275 H   0  0  0  0  0  0  0  0  0  0  0  0
   -2.2613  -12.3432    9.5806 H   0  0  0  0  0  0  0  0  0  0  0  0
   -0.3708  -12.2318    7.9478 H   0  0  0  0  0  0  0  0  0  0  0  0
    0.7995  -12.2363    9.2677 H   0  0  0  0  0  0  0  0  0  0  0  0
   -0.1803  -10.1064   10.1636 H   0  0  0  0  0  0  0  0  0  0  0  0
   -1.3616  -10.0944    8.8571 H   0  0  0  0  0  0  0  0  0  0  0  0
    1.7026   -9.9231    8.4702 H   0  0  0  0  0  0  0  0  0  0  0  0
    0.5597   -8.5685    8.3268 H   0  0  0  0  0  0  0  0  0  0  0  0
    0.5041   -9.9049    7.1547 H   0  0  0  0  0  0  0  0  0  0  0  0
    1.4363  -14.6835    8.0175 H   0  0  0  0  0  0  0  0  0  0  0  0
    4.4030  -16.0959    2.8702 H   0  0  0  0  0  0  0  0  0  0  0  0
    7.2398  -15.0333   -2.4286 H   0  0  0  0  0  0  0  0  0  0  0  0
    8.2867  -16.4571   -4.1757 H   0  0  0  0  0  0  0  0  0  0  0  0
    9.2742  -18.5834   -5.7016 H   0  0  0  0  0  0  0  0  0  0  0  0
    9.9325  -20.8179   -6.5865 H   0  0  0  0  0  0  0  0  0  0  0  0
    8.0809  -22.7836   -3.2074 H   0  0  0  0  0  0  0  0  0  0  0  0
    7.0131  -20.7854   -0.0922 H   0  0  0  0  0  0  0  0  0  0  0  0
    7.2865  -22.1436   -1.1730 H   0  0  0  0  0  0  0  0  0  0  0  0
    4.7507  -20.4289   -1.2373 H   0  0  0  0  0  0  0  0  0  0  0  0
    5.2286  -21.7197   -3.3023 H   0  0  0  0  0  0  0  0  0  0  0  0
    3.7018  -22.1071   -2.5267 H   0  0  0  0  0  0  0  0  0  0  0  0
    6.2268  -23.8861   -2.3072 H   0  0  0  0  0  0  0  0  0  0  0  0
    4.8573  -24.1565   -3.3948 H   0  0  0  0  0  0  0  0  0  0  0  0
    4.6271  -24.2602   -1.6392 H   0  0  0  0  0  0  0  0  0  0  0  0
    5.3055  -22.9558    0.3985 H   0  0  0  0  0  0  0  0  0  0  0  0
    3.6783  -22.4563   -0.0446 H   0  0  0  0  0  0  0  0  0  0  0  0
    4.0133  -20.2548    1.1107 H   0  0  0  0  0  0  0  0  0  0  0  0
    5.6394  -20.7380    1.5929 H   0  0  0  0  0  0  0  0  0  0  0  0
    4.6896  -22.6872    2.8681 H   0  0  0  0  0  0  0  0  0  0  0  0
    3.0630  -22.1992    2.3997 H   0  0  0  0  0  0  0  0  0  0  0  0
    5.0026  -20.4900    4.0990 H   0  0  0  0  0  0  0  0  0  0  0  0
    3.5977  -21.3901    4.7143 H   0  0  0  0  0  0  0  0  0  0  0  0
    3.3589  -20.0008    3.6292 H   0  0  0  0  0  0  0  0  0  0  0  0
    6.1012  -18.5292   -0.1498 H   0  0  0  0  0  0  0  0  0  0  0  0
    5.9135  -12.8028   -0.2948 H   0  0  0  0  0  0  0  0  0  0  0  0
    5.8656  -10.3407   -0.3998 H   0  0  0  0  0  0  0  0  0  0  0  0
    5.9858   -4.6306   -0.7404 H   0  0  0  0  0  0  0  0  0  0  0  0
  1  2  1  0
  1 92  1  0
  1 93  1  0
  1 94  1  0
  2  3  1  0
  2 95  1  0
  2 96  1  0
  3  4  1  0
  3 97  1  0
  3 98  1  0
  4  5  1  0
  4 99  1  0
  4100  1  0
  5  6  1  0
  5  8  1  0
  5101  1  6
  6  7  1  0
  6102  1  0
  6103  1  0
  7104  1  0
  7105  1  0
  7106  1  0
  8  9  1  0
  8107  1  0
  8108  1  0
  9 10  1  0
  9 91  1  0
 10 11  2  0
 10 17  1  0
 11 12  1  0
 11109  1  0
 12 13  1  0
 12 15  2  0
 13 14  3  0
 15 16  1  0
 15110  1  0
 16 17  2  0
 16111  1  0
 17 18  1  0
 18 19  1  0
 18 91  2  0
 19 20  2  0
 19112  1  0
 20 21  1  0
 20113  1  0
 21 22  1  0
 21 90  2  0
 22 23  3  0
 23 24  1  0
 24 25  2  0
 24 87  1  0
 25 26  1  0
 25114  1  0
 26 27  2  0
 26115  1  0
 27 28  1  0
 27 88  1  0
 28 29  2  0
 28116  1  0
 29 30  1  0
 29117  1  0
 30 31  2  0
 30 89  1  0
 31 32  1  0
 31 57  1  0
 32 33  3  0
 33 34  1  0
 34 35  2  0
 34 56  1  0
 35 36  1  0
 35118  1  0
 36 37  2  0
 36119  1  0
 37 38  1  0
 37 55  1  0
 38 39  2  0
 38 45  1  0
 39 40  1  0
 39120  1  0
 40 41  2  0
 40121  1  0
 41 42  1  0
 41 44  1  0
 42 43  3  0
 44 45  2  0
 44122  1  0
 45 46  1  0
 46 47  1  0
 46 55  1  0
 47 48  1  0
 47123  1  0
 47124  1  0
 48 49  1  0
 48 51  1  0
 48125  1  6
 49 50  1  0
 49126  1  0
 49127  1  0
 50128  1  0
 50129  1  0
 50130  1  0
 51 52  1  0
 51131  1  0
 51132  1  0
 52 53  1  0
 52133  1  0
 52134  1  0
 53 54  1  0
 53135  1  0
 53136  1  0
 54137  1  0
 54138  1  0
 54139  1  0
 55 56  2  0
 56140  1  0
 57 58  2  0
 57141  1  0
 58 59  1  0
 58 84  1  0
 59 60  3  0
 60 61  1  0
 61 62  2  0
 61 83  1  0
 62 63  1  0
 62142  1  0
 63 64  2  0
 63143  1  0
 64 65  1  0
 64 82  1  0
 65 66  2  0
 65 72  1  0
 66 67  1  0
 66144  1  0
 67 68  2  0
 67145  1  0
 68 69  1  0
 68 71  1  0
 69 70  3  0
 71 72  2  0
 71146  1  0
 72 73  1  0
 73 74  1  0
 73 82  1  0
 74 75  1  0
 74147  1  0
 74148  1  0
 75 76  1  0
 75 78  1  0
 75149  1  1
 76 77  1  0
 76150  1  0
 76151  1  0
 77152  1  0
 77153  1  0
 77154  1  0
 78 79  1  0
 78155  1  0
 78156  1  0
 79 80  1  0
 79157  1  0
 79158  1  0
 80 81  1  0
 80159  1  0
 80160  1  0
 81161  1  0
 81162  1  0
 81163  1  0
 82 83  2  0
 83164  1  0
 84 85  2  0
 84 89  1  0
 85 86  1  0
 85165  1  0
 86 87  2  0
 86166  1  0
 87 88  1  0
 88 89  2  0
 90 91  1  0
 90167  1  0
M  END

