
     RDKit          3D

 38 39  0  0  0  0  0  0  0  0999 V2000
    3.1086   -1.4248   -0.3634 C   0  0  0  0  0  0  0  0  0  0  0  0
    3.1713   -0.1176   -1.1654 C   0  0  0  0  0  0  0  0  0  0  0  0
    3.2587    1.1111   -0.3116 C   0  0  0  0  0  0  0  0  0  0  0  0
    2.3005    1.5874    0.6493 C   0  0  0  0  0  0  0  0  0  0  0  0
    2.8723    2.7868    1.1730 C   0  0  0  0  0  0  0  0  0  0  0  0
    2.1435    3.7697    2.0298 C   0  0  0  0  0  0  0  0  0  0  0  0
    0.8252    4.0034    1.2850 C   0  0  0  0  0  0  0  0  0  0  0  0
    0.6387    3.2249    0.2541 O   0  0  0  0  0  0  0  0  0  0  0  0
   -0.0772    5.0074    1.6950 C   0  0  0  0  0  0  0  0  0  0  0  0
   -1.2895    5.2385    0.9578 C   0  0  0  0  0  0  0  0  0  0  0  0
   -2.1931    6.2125    1.3354 C   0  0  0  0  0  0  0  0  0  0  0  0
   -1.9704    7.0345    2.4672 C   0  0  0  0  0  0  0  0  0  0  0  0
   -2.9260    7.9797    2.8764 N   0  0  0  0  0  0  0  0  0  0  0  0
   -0.7869    6.8201    3.2059 C   0  0  0  0  0  0  0  0  0  0  0  0
    0.1310    5.8462    2.8422 C   0  0  0  0  0  0  0  0  0  0  0  0
    4.0371    2.9357    0.5521 N   0  0  0  0  0  0  0  0  0  0  0  0
    5.0259    4.0043    0.6527 C   0  0  0  0  0  0  0  0  0  0  0  0
    6.2969    3.5546    1.3679 C   0  0  0  0  0  0  0  0  0  0  0  0
    4.3014    1.9109   -0.3499 N   0  0  0  0  0  0  0  0  0  0  0  0
    3.0372   -2.2889   -1.0413 H   0  0  0  0  0  0  0  0  0  0  0  0
    2.2308   -1.4534    0.3021 H   0  0  0  0  0  0  0  0  0  0  0  0
    4.0082   -1.5551    0.2585 H   0  0  0  0  0  0  0  0  0  0  0  0
    2.2745   -0.0326   -1.8030 H   0  0  0  0  0  0  0  0  0  0  0  0
    4.0429   -0.1192   -1.8368 H   0  0  0  0  0  0  0  0  0  0  0  0
    1.4088    1.0903    1.0098 H   0  0  0  0  0  0  0  0  0  0  0  0
    2.7192    4.6986    2.1669 H   0  0  0  0  0  0  0  0  0  0  0  0
    2.0031    3.3477    3.0427 H   0  0  0  0  0  0  0  0  0  0  0  0
   -1.4818    4.6198    0.0801 H   0  0  0  0  0  0  0  0  0  0  0  0
   -3.1074    6.3543    0.7491 H   0  0  0  0  0  0  0  0  0  0  0  0
   -3.5066    8.3335    2.1217 H   0  0  0  0  0  0  0  0  0  0  0  0
   -2.5427    8.7496    3.4169 H   0  0  0  0  0  0  0  0  0  0  0  0
   -0.5936    7.4351    4.0913 H   0  0  0  0  0  0  0  0  0  0  0  0
    1.0258    5.7255    3.4578 H   0  0  0  0  0  0  0  0  0  0  0  0
    4.5509    4.8474    1.1704 H   0  0  0  0  0  0  0  0  0  0  0  0
    5.2490    4.3212   -0.3768 H   0  0  0  0  0  0  0  0  0  0  0  0
    6.0881    3.2673    2.4101 H   0  0  0  0  0  0  0  0  0  0  0  0
    7.0276    4.3773    1.3769 H   0  0  0  0  0  0  0  0  0  0  0  0
    6.7485    2.6951    0.8513 H   0  0  0  0  0  0  0  0  0  0  0  0
  1  2  1  0
  1 20  1  0
  1 21  1  0
  1 22  1  0
  2  3  1  0
  2 23  1  0
  2 24  1  0
  3  4  1  0
  3 19  2  0
  4  5  2  0
  4 25  1  0
  5  6  1  0
  5 16  1  0
  6  7  1  0
  6 26  1  0
  6 27  1  0
  7  8  2  0
  7  9  1  0
  9 10  2  0
  9 15  1  0
 10 11  1  0
 10 28  1  0
 11 12  2  0
 11 29  1  0
 12 13  1  0
 12 14  1  0
 13 30  1  0
 13 31  1  0
 14 15  2  0
 14 32  1  0
 15 33  1  0
 16 17  1  0
 16 19  1  0
 17 18  1  0
 17 34  1  0
 17 35  1  0
 18 36  1  0
 18 37  1  0
 18 38  1  0
M  END

