
     RDKit          3D

 66 69  0  0  0  0  0  0  0  0999 V2000
    4.3208    6.4262   -6.0003 C   0  0  0  0  0  0  0  0  0  0  0  0
    4.1812    6.4294   -4.4797 C   0  0  0  0  0  0  0  0  0  0  0  0
    5.4237    6.7197   -3.7642 N   0  0  0  0  0  0  0  0  0  0  0  0
    6.0009    8.0415   -4.0187 C   0  0  0  0  0  0  0  0  0  0  0  0
    5.1815    9.2569   -3.5597 C   0  0  0  0  0  0  0  0  0  0  0  0
    5.3692    6.3537   -2.3481 C   0  0  0  0  0  0  0  0  0  0  0  0
    5.5477    4.8487   -2.1260 C   0  0  0  0  0  0  0  0  0  0  0  0
    6.7522    4.3946   -2.7830 N   0  0  0  0  0  0  0  0  0  0  0  0
    7.4699    3.3112   -2.3553 C   0  0  0  0  0  0  0  0  0  0  0  0
    7.1429    2.6648   -1.3653 O   0  0  0  0  0  0  0  0  0  0  0  0
    8.6731    2.9747   -3.1605 C   0  0  0  0  0  0  0  0  0  0  0  0
    9.3066    3.7693   -4.1291 C   0  0  0  0  0  0  0  0  0  0  0  0
   10.3681    3.1061   -4.6168 N   0  0  0  0  0  0  0  0  0  0  0  0
   11.0539    3.4003   -5.3319 H   0  0  0  0  0  0  0  0  0  0  0  0
   10.4759    1.8694   -3.9990 C   0  0  0  0  0  0  0  0  0  0  0  0
   11.4848    0.9060   -4.2781 C   0  0  0  0  0  0  0  0  0  0  0  0
   12.5509    0.9118   -5.1512 C   0  0  0  0  0  0  0  0  0  0  0  0
   12.9576    1.9973   -6.0823 C   0  0  0  0  0  0  0  0  0  0  0  0
   12.4555    3.1059   -6.2866 O   0  0  0  0  0  0  0  0  0  0  0  0
   14.0905    1.5625   -6.7646 N   0  0  0  0  0  0  0  0  0  0  0  0
   14.7918    2.3609   -7.7667 C   0  0  0  0  0  0  0  0  0  0  0  0
   15.7662    3.3533   -7.1913 C   0  0  0  0  0  0  0  0  0  0  0  0
   15.4967    4.5082   -6.4109 C   0  0  0  0  0  0  0  0  0  0  0  0
   16.7443    5.0529   -6.1665 C   0  0  0  0  0  0  0  0  0  0  0  0
   17.6540    4.2463   -6.7819 N   0  0  0  0  0  0  0  0  0  0  0  0
   19.0934    4.3944   -6.8232 C   0  0  0  0  0  0  0  0  0  0  0  0
   17.0747    3.2123   -7.4056 N   0  0  0  0  0  0  0  0  0  0  0  0
   14.4432    0.2887   -6.3568 C   0  0  0  0  0  0  0  0  0  0  0  0
   15.4588   -0.3948   -6.8403 N   0  0  0  0  0  0  0  0  0  0  0  0
   15.6064   -1.6234   -6.3004 C   0  0  0  0  0  0  0  0  0  0  0  0
   16.6328   -2.3806   -6.7617 N   0  0  0  0  0  0  0  0  0  0  0  0
   14.8221   -2.1625   -5.3513 N   0  0  0  0  0  0  0  0  0  0  0  0
   13.8104   -1.4405   -4.9035 C   0  0  0  0  0  0  0  0  0  0  0  0
   12.8135   -2.1976   -3.6703 Cl  0  0  0  0  0  0  0  0  0  0  0  0
   13.5278   -0.1549   -5.3625 C   0  0  0  0  0  0  0  0  0  0  0  0
    9.4150    1.7653   -3.0667 C   0  0  0  0  0  0  0  0  0  0  0  0
    9.1287    0.6140   -2.1546 C   0  0  0  0  0  0  0  0  0  0  0  0
    3.3812    6.0876   -6.4647 H   0  0  0  0  0  0  0  0  0  0  0  0
    5.1262    5.7449   -6.3181 H   0  0  0  0  0  0  0  0  0  0  0  0
    4.5418    7.4256   -6.4067 H   0  0  0  0  0  0  0  0  0  0  0  0
    3.8456    5.4299   -4.1616 H   0  0  0  0  0  0  0  0  0  0  0  0
    3.3634    7.1244   -4.1838 H   0  0  0  0  0  0  0  0  0  0  0  0
    6.2038    8.1289   -5.0986 H   0  0  0  0  0  0  0  0  0  0  0  0
    6.9888    8.0656   -3.5282 H   0  0  0  0  0  0  0  0  0  0  0  0
    4.2091    9.3202   -4.0735 H   0  0  0  0  0  0  0  0  0  0  0  0
    5.7297   10.1876   -3.7785 H   0  0  0  0  0  0  0  0  0  0  0  0
    4.9876    9.2339   -2.4751 H   0  0  0  0  0  0  0  0  0  0  0  0
    4.4276    6.6800   -1.8563 H   0  0  0  0  0  0  0  0  0  0  0  0
    6.1932    6.8731   -1.8334 H   0  0  0  0  0  0  0  0  0  0  0  0
    4.6606    4.2918   -2.4868 H   0  0  0  0  0  0  0  0  0  0  0  0
    5.6276    4.6254   -1.0520 H   0  0  0  0  0  0  0  0  0  0  0  0
    6.9385    4.8294   -3.6804 H   0  0  0  0  0  0  0  0  0  0  0  0
    9.0704    4.7748   -4.4744 H   0  0  0  0  0  0  0  0  0  0  0  0
   11.3873   -0.0046   -3.6853 H   0  0  0  0  0  0  0  0  0  0  0  0
   14.0216    2.8823   -8.3540 H   0  0  0  0  0  0  0  0  0  0  0  0
   15.3403    1.6651   -8.4137 H   0  0  0  0  0  0  0  0  0  0  0  0
   14.5261    4.8703   -6.0832 H   0  0  0  0  0  0  0  0  0  0  0  0
   17.0501    5.9389   -5.6134 H   0  0  0  0  0  0  0  0  0  0  0  0
   19.3810    5.2850   -6.2489 H   0  0  0  0  0  0  0  0  0  0  0  0
   19.4380    4.5080   -7.8625 H   0  0  0  0  0  0  0  0  0  0  0  0
   19.5810    3.5098   -6.3861 H   0  0  0  0  0  0  0  0  0  0  0  0
   17.2768   -1.9845   -7.4312 H   0  0  0  0  0  0  0  0  0  0  0  0
   16.8042   -3.2853   -6.3472 H   0  0  0  0  0  0  0  0  0  0  0  0
    9.7938   -0.2403   -2.3455 H   0  0  0  0  0  0  0  0  0  0  0  0
    8.0856    0.2792   -2.2596 H   0  0  0  0  0  0  0  0  0  0  0  0
    9.2347    0.9162   -1.1013 H   0  0  0  0  0  0  0  0  0  0  0  0
  1  2  1  0
  1 38  1  0
  1 39  1  0
  1 40  1  0
  2  3  1  0
  2 41  1  0
  2 42  1  0
  3  4  1  0
  3  6  1  0
  4  5  1  0
  4 43  1  0
  4 44  1  0
  5 45  1  0
  5 46  1  0
  5 47  1  0
  6  7  1  0
  6 48  1  0
  6 49  1  0
  7  8  1  0
  7 50  1  0
  7 51  1  0
  8  9  1  0
  8 52  1  0
  9 10  2  0
  9 11  1  0
 11 12  2  0
 11 36  1  0
 12 13  1  0
 12 53  1  0
 13 14  1  0
 13 15  1  0
 15 16  1  0
 15 36  2  0
 16 17  2  0
 16 54  1  0
 17 18  1  0
 17 35  1  0
 18 19  2  0
 18 20  1  0
 20 21  1  0
 20 28  1  0
 21 22  1  0
 21 55  1  0
 21 56  1  0
 22 23  1  0
 22 27  2  0
 23 24  2  0
 23 57  1  0
 24 25  1  0
 24 58  1  0
 25 26  1  0
 25 27  1  0
 26 59  1  0
 26 60  1  0
 26 61  1  0
 28 29  1  0
 28 35  2  0
 29 30  2  0
 30 31  1  0
 30 32  1  0
 31 62  1  0
 31 63  1  0
 32 33  2  0
 33 34  1  0
 33 35  1  0
 36 37  1  0
 37 64  1  0
 37 65  1  0
 37 66  1  0
M  END

