
     RDKit          3D

 29 30  0  0  0  0  0  0  0  0999 V2000
    3.2010    3.1007    0.5189 N   0  0  0  0  0  0  0  0  0  0  0  0
    2.7066    1.8525    0.3478 C   0  0  0  0  0  0  0  0  0  0  0  0
    1.7916    1.3717    1.0033 O   0  0  0  0  0  0  0  0  0  0  0  0
    3.4001    1.0502   -0.7744 C   0  0  0  0  0  0  0  0  0  0  0  0
    4.8277    0.8156   -0.6097 N   0  0  0  0  0  0  0  0  0  0  0  0
    5.7376    1.8616   -0.9323 C   0  0  0  0  0  0  0  0  0  0  0  0
    5.3492    3.0379   -1.1962 O   0  0  0  0  0  0  0  0  0  0  0  0
    7.1456    1.5303   -0.9232 C   0  0  0  0  0  0  0  0  0  0  0  0
    8.1877    2.4789   -1.0129 C   0  0  0  0  0  0  0  0  0  0  0  0
    9.4285    1.8369   -1.0099 N   0  0  0  0  0  0  0  0  0  0  0  0
   10.3232    2.2996   -1.0838 H   0  0  0  0  0  0  0  0  0  0  0  0
    9.2369    0.4900   -0.9333 C   0  0  0  0  0  0  0  0  0  0  0  0
   10.1521   -0.5545   -0.9045 C   0  0  0  0  0  0  0  0  0  0  0  0
    9.6474   -1.8883   -0.8523 C   0  0  0  0  0  0  0  0  0  0  0  0
   10.5277   -2.9237   -0.8255 N   0  0  0  0  0  0  0  0  0  0  0  0
    8.2433   -2.1483   -0.8325 C   0  0  0  0  0  0  0  0  0  0  0  0
    7.3459   -1.0934   -0.8495 C   0  0  0  0  0  0  0  0  0  0  0  0
    7.8101    0.2469   -0.8853 C   0  0  0  0  0  0  0  0  0  0  0  0
    2.8146    3.6704    1.2619 H   0  0  0  0  0  0  0  0  0  0  0  0
    3.9943    3.4035   -0.0689 H   0  0  0  0  0  0  0  0  0  0  0  0
    3.2594    1.5831   -1.7279 H   0  0  0  0  0  0  0  0  0  0  0  0
    2.8716    0.0867   -0.8249 H   0  0  0  0  0  0  0  0  0  0  0  0
    5.0404    0.3377    0.2673 H   0  0  0  0  0  0  0  0  0  0  0  0
    8.1029    3.5585   -1.0975 H   0  0  0  0  0  0  0  0  0  0  0  0
   11.2306   -0.3793   -0.9256 H   0  0  0  0  0  0  0  0  0  0  0  0
   11.5277   -2.7658   -0.8443 H   0  0  0  0  0  0  0  0  0  0  0  0
   10.2016   -3.8818   -0.7897 H   0  0  0  0  0  0  0  0  0  0  0  0
    7.8922   -3.1821   -0.8078 H   0  0  0  0  0  0  0  0  0  0  0  0
    6.2711   -1.2737   -0.8568 H   0  0  0  0  0  0  0  0  0  0  0  0
  1  2  1  0
  1 19  1  0
  1 20  1  0
  2  3  2  0
  2  4  1  0
  4  5  1  0
  4 21  1  0
  4 22  1  0
  5  6  1  0
  5 23  1  0
  6  7  2  0
  6  8  1  0
  8  9  2  0
  8 18  1  0
  9 10  1  0
  9 24  1  0
 10 11  1  0
 10 12  1  0
 12 13  1  0
 12 18  2  0
 13 14  2  0
 13 25  1  0
 14 15  1  0
 14 16  1  0
 15 26  1  0
 15 27  1  0
 16 17  2  0
 16 28  1  0
 17 18  1  0
 17 29  1  0
M  END

