
     RDKit          3D

 52 54  0  0  0  0  0  0  0  0999 V2000
   -0.4694   -3.6540    0.6389 C   0  0  0  0  0  0  0  0  0  0  0  0
    0.4483   -2.5646    0.5736 O   0  0  0  0  0  0  0  0  0  0  0  0
    0.5875   -1.9891   -0.6361 C   0  0  0  0  0  0  0  0  0  0  0  0
   -0.0710   -2.3161   -1.5980 O   0  0  0  0  0  0  0  0  0  0  0  0
    1.6010   -0.9062   -0.6723 C   0  0  0  0  0  0  0  0  0  0  0  0
    1.7281   -0.0926   -1.8455 C   0  0  0  0  0  0  0  0  0  0  0  0
    2.6792    0.8872   -1.7546 C   0  0  0  0  0  0  0  0  0  0  0  0
    3.0480    1.9307   -2.7646 C   0  0  0  0  0  0  0  0  0  0  0  0
    3.4890    0.7983   -0.2088 S   0  0  0  0  0  0  0  0  0  0  0  0
    2.4961   -0.5412    0.3172 C   0  0  0  0  0  0  0  0  0  0  0  0
    2.6985   -1.0762    1.5926 N   0  0  0  0  0  0  0  0  0  0  0  0
    3.2666   -2.3110    1.8666 C   0  0  0  0  0  0  0  0  0  0  0  0
    4.0079   -3.2229    0.6782 S   0  0  0  0  0  0  0  0  0  0  0  0
    3.1742   -2.6834    3.1830 N   0  0  0  0  0  0  0  0  0  0  0  0
    2.2674   -2.1024    4.1669 C   0  0  0  0  0  0  0  0  0  0  0  0
    1.4223   -3.2003    4.8141 C   0  0  0  0  0  0  0  0  0  0  0  0
    2.2416   -4.2694    5.3809 N   0  0  0  0  0  0  0  0  0  0  0  0
    1.4833   -5.1442    6.2235 C   0  0  0  0  0  0  0  0  0  0  0  0
    0.9248   -6.3505    5.7746 C   0  0  0  0  0  0  0  0  0  0  0  0
    0.1714   -7.1527    6.6382 C   0  0  0  0  0  0  0  0  0  0  0  0
   -0.0683   -6.7749    7.9662 C   0  0  0  0  0  0  0  0  0  0  0  0
   -0.8865   -7.6350    8.8987 C   0  0  0  0  0  0  0  0  0  0  0  0
    0.4857   -5.5599    8.4062 C   0  0  0  0  0  0  0  0  0  0  0  0
    1.2530   -4.7649    7.5570 C   0  0  0  0  0  0  0  0  0  0  0  0
    3.1432   -4.8735    4.3867 C   0  0  2  0  0  0  0  0  0  0  0  0
    2.5661   -5.3609    3.5693 H   0  0  0  0  0  0  0  0  0  0  0  0
    4.0918   -5.8938    5.0170 C   0  0  0  0  0  0  0  0  0  0  0  0
    3.9805   -3.7626    3.7373 C   0  0  0  0  0  0  0  0  0  0  0  0
   -0.4554   -4.0039    1.6788 H   0  0  0  0  0  0  0  0  0  0  0  0
   -0.1596   -4.4651   -0.0371 H   0  0  0  0  0  0  0  0  0  0  0  0
   -1.4838   -3.3336    0.3565 H   0  0  0  0  0  0  0  0  0  0  0  0
    1.0963   -0.2472   -2.7207 H   0  0  0  0  0  0  0  0  0  0  0  0
    2.4302    1.8077   -3.6663 H   0  0  0  0  0  0  0  0  0  0  0  0
    4.1057    1.8567   -3.0676 H   0  0  0  0  0  0  0  0  0  0  0  0
    2.8868    2.9519   -2.3801 H   0  0  0  0  0  0  0  0  0  0  0  0
    2.5989   -0.4265    2.3653 H   0  0  0  0  0  0  0  0  0  0  0  0
    1.5836   -1.3916    3.6869 H   0  0  0  0  0  0  0  0  0  0  0  0
    2.8441   -1.5710    4.9481 H   0  0  0  0  0  0  0  0  0  0  0  0
    0.7170   -3.5945    4.0476 H   0  0  0  0  0  0  0  0  0  0  0  0
    0.8122   -2.7553    5.6145 H   0  0  0  0  0  0  0  0  0  0  0  0
    1.0760   -6.6725    4.7422 H   0  0  0  0  0  0  0  0  0  0  0  0
   -0.2455   -8.0925    6.2641 H   0  0  0  0  0  0  0  0  0  0  0  0
   -1.2233   -8.5588    8.4056 H   0  0  0  0  0  0  0  0  0  0  0  0
   -1.7826   -7.1001    9.2565 H   0  0  0  0  0  0  0  0  0  0  0  0
   -0.3079   -7.9233    9.7924 H   0  0  0  0  0  0  0  0  0  0  0  0
    0.3261   -5.2388    9.4401 H   0  0  0  0  0  0  0  0  0  0  0  0
    1.6998   -3.8358    7.9198 H   0  0  0  0  0  0  0  0  0  0  0  0
    3.5578   -6.7543    5.4408 H   0  0  0  0  0  0  0  0  0  0  0  0
    4.6717   -5.4239    5.8272 H   0  0  0  0  0  0  0  0  0  0  0  0
    4.7945   -6.2719    4.2585 H   0  0  0  0  0  0  0  0  0  0  0  0
    4.5866   -4.1785    2.9238 H   0  0  0  0  0  0  0  0  0  0  0  0
    4.6511   -3.3372    4.5085 H   0  0  0  0  0  0  0  0  0  0  0  0
  1  2  1  0
  1 29  1  0
  1 30  1  0
  1 31  1  0
  2  3  1  0
  3  4  2  0
  3  5  1  0
  5  6  1  0
  5 10  2  0
  6  7  2  0
  6 32  1  0
  7  8  1  0
  7  9  1  0
  8 33  1  0
  8 34  1  0
  8 35  1  0
  9 10  1  0
 10 11  1  0
 11 12  1  0
 11 36  1  0
 12 13  2  0
 12 14  1  0
 14 15  1  0
 14 28  1  0
 15 16  1  0
 15 37  1  0
 15 38  1  0
 16 17  1  0
 16 39  1  0
 16 40  1  0
 17 18  1  0
 17 25  1  0
 18 19  2  0
 18 24  1  0
 19 20  1  0
 19 41  1  0
 20 21  2  0
 20 42  1  0
 21 22  1  0
 21 23  1  0
 22 43  1  0
 22 44  1  0
 22 45  1  0
 23 24  2  0
 23 46  1  0
 24 47  1  0
 25 26  1  6
 25 27  1  0
 25 28  1  0
 27 48  1  0
 27 49  1  0
 27 50  1  0
 28 51  1  0
 28 52  1  0
M  END

