
     RDKit          3D

 60 64  0  0  0  0  0  0  0  0999 V2000
   -1.1861    0.6598    2.6263 C   0  0  0  0  0  0  0  0  0  0  0  0
    0.0520    0.3742    3.2352 O   0  0  0  0  0  0  0  0  0  0  0  0
    1.1998    0.5677    2.5379 C   0  0  0  0  0  0  0  0  0  0  0  0
    1.2562    1.0455    1.2184 C   0  0  0  0  0  0  0  0  0  0  0  0
    2.5019    1.1994    0.6004 C   0  0  0  0  0  0  0  0  0  0  0  0
    3.6832    0.8914    1.2759 C   0  0  0  0  0  0  0  0  0  0  0  0
    3.6296    0.4230    2.6000 C   0  0  0  0  0  0  0  0  0  0  0  0
    4.9227    0.0388    3.3245 C   0  0  1  0  0  0  0  0  0  0  0  0
    4.9871    0.3899    4.8017 C   0  0  0  0  0  0  0  0  0  0  0  0
    4.9097    1.6051    5.4846 C   0  0  0  0  0  0  0  0  0  0  0  0
    4.9193    1.5710    6.8064 O   0  0  0  0  0  0  0  0  0  0  0  0
    4.8004    2.9597    4.9198 C   0  0  0  0  0  0  0  0  0  0  0  0
    4.3325    4.0008    5.7533 C   0  0  0  0  0  0  0  0  0  0  0  0
    4.2175    5.3136    5.2992 C   0  0  0  0  0  0  0  0  0  0  0  0
    4.5976    5.5798    3.9823 C   0  0  0  0  0  0  0  0  0  0  0  0
    5.0785    4.5696    3.1350 C   0  0  0  0  0  0  0  0  0  0  0  0
    5.1751    3.2654    3.5908 C   0  0  0  0  0  0  0  0  0  0  0  0
    5.3431    5.1951    1.7859 C   0  0  0  0  0  0  0  0  0  0  0  0
    5.2156    6.7085    2.0990 C   0  0  1  0  0  0  0  0  0  0  0  0
    4.4356    7.5304    1.0926 C   0  0  0  0  0  0  0  0  0  0  0  0
    4.5538    6.7927    3.3954 O   0  0  0  0  0  0  0  0  0  0  0  0
    5.1216   -0.8141    5.5686 C   0  0  0  0  0  0  0  0  0  0  0  0
    5.1601   -0.9226    6.8037 O   0  0  0  0  0  0  0  0  0  0  0  0
    5.2250   -1.9822    4.5937 C   0  0  0  0  0  0  0  0  0  0  0  0
    5.3880   -3.1564    4.8556 O   0  0  0  0  0  0  0  0  0  0  0  0
    5.1068   -1.4266    3.3449 N   0  0  0  0  0  0  0  0  0  0  0  0
    5.2033   -2.2325    2.1475 C   0  0  0  0  0  0  0  0  0  0  0  0
    6.5606   -2.1549    1.4493 C   0  0  1  0  0  0  0  0  0  0  0  0
    6.7118   -3.0922    0.2474 C   0  0  0  0  0  0  0  0  0  0  0  0
    7.7803   -2.3706   -0.5810 C   0  0  0  0  0  0  0  0  0  0  0  0
    7.4246   -0.8963   -0.3479 C   0  0  0  0  0  0  0  0  0  0  0  0
    6.7734   -0.8370    0.9213 O   0  0  0  0  0  0  0  0  0  0  0  0
    2.3894    0.2602    3.2182 C   0  0  0  0  0  0  0  0  0  0  0  0
   -1.3574    0.0384    1.7284 H   0  0  0  0  0  0  0  0  0  0  0  0
   -1.2703    1.7244    2.3414 H   0  0  0  0  0  0  0  0  0  0  0  0
   -1.9610    0.4294    3.3697 H   0  0  0  0  0  0  0  0  0  0  0  0
    0.3476    1.2946    0.6700 H   0  0  0  0  0  0  0  0  0  0  0  0
    2.5428    1.5635   -0.4299 H   0  0  0  0  0  0  0  0  0  0  0  0
    4.6514    0.9909    0.7802 H   0  0  0  0  0  0  0  0  0  0  0  0
    5.7657    0.4660    2.7579 H   0  0  0  0  0  0  0  0  0  0  0  0
    4.9974    0.5954    7.0919 H   0  0  0  0  0  0  0  0  0  0  0  0
    4.0581    3.7584    6.7802 H   0  0  0  0  0  0  0  0  0  0  0  0
    3.8513    6.1131    5.9453 H   0  0  0  0  0  0  0  0  0  0  0  0
    5.5646    2.4925    2.9315 H   0  0  0  0  0  0  0  0  0  0  0  0
    4.5861    4.8736    1.0483 H   0  0  0  0  0  0  0  0  0  0  0  0
    6.3317    4.9461    1.3709 H   0  0  0  0  0  0  0  0  0  0  0  0
    6.2205    7.1452    2.2427 H   0  0  0  0  0  0  0  0  0  0  0  0
    3.4244    7.1166    0.9537 H   0  0  0  0  0  0  0  0  0  0  0  0
    4.9511    7.5285    0.1190 H   0  0  0  0  0  0  0  0  0  0  0  0
    4.3410    8.5732    1.4307 H   0  0  0  0  0  0  0  0  0  0  0  0
    4.4122   -1.9400    1.4375 H   0  0  0  0  0  0  0  0  0  0  0  0
    5.0313   -3.2736    2.4610 H   0  0  0  0  0  0  0  0  0  0  0  0
    7.3484   -2.3730    2.1974 H   0  0  0  0  0  0  0  0  0  0  0  0
    5.7599   -3.1491   -0.3091 H   0  0  0  0  0  0  0  0  0  0  0  0
    6.9953   -4.1137    0.5404 H   0  0  0  0  0  0  0  0  0  0  0  0
    7.7741   -2.6469   -1.6460 H   0  0  0  0  0  0  0  0  0  0  0  0
    8.7833   -2.5930   -0.1818 H   0  0  0  0  0  0  0  0  0  0  0  0
    6.7360   -0.5195   -1.1278 H   0  0  0  0  0  0  0  0  0  0  0  0
    8.3112   -0.2391   -0.3384 H   0  0  0  0  0  0  0  0  0  0  0  0
    2.3124   -0.1039    4.2446 H   0  0  0  0  0  0  0  0  0  0  0  0
  1  2  1  0
  1 34  1  0
  1 35  1  0
  1 36  1  0
  2  3  1  0
  3  4  2  0
  3 33  1  0
  4  5  1  0
  4 37  1  0
  5  6  2  0
  5 38  1  0
  6  7  1  0
  6 39  1  0
  7  8  1  0
  7 33  2  0
  8  9  1  0
  8 26  1  0
  8 40  1  6
  9 10  2  0
  9 22  1  0
 10 11  1  0
 10 12  1  0
 11 41  1  0
 12 13  2  0
 12 17  1  0
 13 14  1  0
 13 42  1  0
 14 15  2  0
 14 43  1  0
 15 16  1  0
 15 21  1  0
 16 17  2  0
 16 18  1  0
 17 44  1  0
 18 19  1  0
 18 45  1  0
 18 46  1  0
 19 20  1  0
 19 21  1  0
 19 47  1  1
 20 48  1  0
 20 49  1  0
 20 50  1  0
 22 23  2  0
 22 24  1  0
 24 25  2  0
 24 26  1  0
 26 27  1  0
 27 28  1  0
 27 51  1  0
 27 52  1  0
 28 29  1  0
 28 32  1  0
 28 53  1  1
 29 30  1  0
 29 54  1  0
 29 55  1  0
 30 31  1  0
 30 56  1  0
 30 57  1  0
 31 32  1  0
 31 58  1  0
 31 59  1  0
 33 60  1  0
M  END

