
     RDKit          3D

 40 42  0  0  0  0  0  0  0  0999 V2000
    0.6056   -5.0260    0.3970 O   0  0  0  0  0  0  0  0  0  0  0  0
    1.6535   -4.5650    0.7790 C   0  0  0  0  0  0  0  0  0  0  0  0
    1.8720   -4.3774    2.1074 O   0  0  0  0  0  0  0  0  0  0  0  0
    2.6869   -4.1952   -0.0630 N   0  0  0  0  0  0  0  0  0  0  0  0
    4.0682   -3.9338    0.3286 C   0  0  0  0  0  0  0  0  0  0  0  0
    5.0283   -4.9647   -0.2858 C   0  0  0  0  0  0  0  0  0  0  0  0
    4.8524   -5.0770   -1.7992 C   0  0  2  0  0  0  0  0  0  0  0  0
    5.3208   -3.8205   -2.3514 O   0  0  0  0  0  0  0  0  0  0  0  0
    5.7681   -3.7685   -3.6112 C   0  0  0  0  0  0  0  0  0  0  0  0
    6.2133   -2.5301   -4.0954 C   0  0  0  0  0  0  0  0  0  0  0  0
    6.6752   -2.5377   -5.4100 C   0  0  0  0  0  0  0  0  0  0  0  0
    7.1394   -1.3677   -5.9150 O   0  0  0  0  0  0  0  0  0  0  0  0
    7.4357   -1.2544   -7.2561 C   0  0  0  0  0  0  0  0  0  0  0  0
    8.7338   -0.9188   -7.6370 C   0  0  0  0  0  0  0  0  0  0  0  0
    9.0080   -0.7141   -8.9886 C   0  0  0  0  0  0  0  0  0  0  0  0
   10.2562   -0.3880   -9.3515 F   0  0  0  0  0  0  0  0  0  0  0  0
    8.0243   -0.8414   -9.9656 C   0  0  0  0  0  0  0  0  0  0  0  0
    6.7250   -1.1788   -9.5740 C   0  0  0  0  0  0  0  0  0  0  0  0
    6.4350   -1.3767   -8.2291 C   0  0  0  0  0  0  0  0  0  0  0  0
    5.1893   -1.6781   -7.8458 F   0  0  0  0  0  0  0  0  0  0  0  0
    6.7045   -3.6308   -6.1679 N   0  0  0  0  0  0  0  0  0  0  0  0
    6.2534   -4.7448   -5.6001 C   0  0  0  0  0  0  0  0  0  0  0  0
    5.7841   -4.8741   -4.3606 N   0  0  0  0  0  0  0  0  0  0  0  0
    3.3826   -5.3066   -2.1633 C   0  0  0  0  0  0  0  0  0  0  0  0
    2.4678   -4.2678   -1.5084 C   0  0  0  0  0  0  0  0  0  0  0  0
    2.6079   -3.7710    2.2614 H   0  0  0  0  0  0  0  0  0  0  0  0
    4.1769   -3.9646    1.4218 H   0  0  0  0  0  0  0  0  0  0  0  0
    4.3615   -2.9204   -0.0002 H   0  0  0  0  0  0  0  0  0  0  0  0
    4.8308   -5.9550    0.1563 H   0  0  0  0  0  0  0  0  0  0  0  0
    6.0701   -4.6943   -0.0509 H   0  0  0  0  0  0  0  0  0  0  0  0
    5.4748   -5.8835   -2.2103 H   0  0  0  0  0  0  0  0  0  0  0  0
    6.1976   -1.6269   -3.4872 H   0  0  0  0  0  0  0  0  0  0  0  0
    9.5176   -0.8164   -6.8860 H   0  0  0  0  0  0  0  0  0  0  0  0
    8.2789   -0.6748  -11.0133 H   0  0  0  0  0  0  0  0  0  0  0  0
    5.9214   -1.2852  -10.3051 H   0  0  0  0  0  0  0  0  0  0  0  0
    6.2691   -5.6520   -6.2161 H   0  0  0  0  0  0  0  0  0  0  0  0
    3.0975   -6.3152   -1.8194 H   0  0  0  0  0  0  0  0  0  0  0  0
    3.2656   -5.2931   -3.2574 H   0  0  0  0  0  0  0  0  0  0  0  0
    1.4129   -4.5164   -1.6703 H   0  0  0  0  0  0  0  0  0  0  0  0
    2.6617   -3.2721   -1.9464 H   0  0  0  0  0  0  0  0  0  0  0  0
  1  2  2  0
  2  3  1  0
  2  4  1  0
  3 26  1  0
  4  5  1  0
  4 25  1  0
  5  6  1  0
  5 27  1  0
  5 28  1  0
  6  7  1  0
  6 29  1  0
  6 30  1  0
  7  8  1  0
  7 24  1  0
  7 31  1  6
  8  9  1  0
  9 10  2  0
  9 23  1  0
 10 11  1  0
 10 32  1  0
 11 12  1  0
 11 21  2  0
 12 13  1  0
 13 14  2  0
 13 19  1  0
 14 15  1  0
 14 33  1  0
 15 16  1  0
 15 17  2  0
 17 18  1  0
 17 34  1  0
 18 19  2  0
 18 35  1  0
 19 20  1  0
 21 22  1  0
 22 23  2  0
 22 36  1  0
 24 25  1  0
 24 37  1  0
 24 38  1  0
 25 39  1  0
 25 40  1  0
M  END

