
     RDKit          3D

 45 47  0  0  0  0  0  0  0  0999 V2000
    6.4270   -0.6493    5.8263 C   0  0  0  0  0  0  0  0  0  0  0  0
    6.5527   -0.2701    4.3821 C   0  0  0  0  0  0  0  0  0  0  0  0
    6.4966    1.0333    3.8149 C   0  0  0  0  0  0  0  0  0  0  0  0
    6.6668    0.8194    2.4555 C   0  0  0  0  0  0  0  0  0  0  0  0
    6.7192    1.6805    1.3590 N   0  0  0  0  0  0  0  0  0  0  0  0
    6.7039    3.0704    1.4465 C   0  0  0  0  0  0  0  0  0  0  0  0
    6.6331    3.6703    2.5044 O   0  0  0  0  0  0  0  0  0  0  0  0
    6.7506    3.6921    0.2153 N   0  0  0  0  0  0  0  0  0  0  0  0
    6.8658    5.1449    0.1232 C   0  0  0  0  0  0  0  0  0  0  0  0
    8.2930    5.6495    0.0313 C   0  0  0  0  0  0  0  0  0  0  0  0
    8.8155    6.1489   -1.1691 C   0  0  0  0  0  0  0  0  0  0  0  0
   10.1342    6.5929   -1.2742 C   0  0  0  0  0  0  0  0  0  0  0  0
   10.9839    6.5451   -0.1514 C   0  0  0  0  0  0  0  0  0  0  0  0
   12.3231    6.9931   -0.2079 N   0  0  0  0  0  0  0  0  0  0  0  0
   13.1359    7.1342    1.0038 C   0  0  0  0  0  0  0  0  0  0  0  0
   14.3703    7.9197    0.5357 C   0  0  0  0  0  0  0  0  0  0  0  0
   14.4971    7.5321   -0.9374 C   0  0  0  0  0  0  0  0  0  0  0  0
   13.0672    7.2121   -1.3650 C   0  0  0  0  0  0  0  0  0  0  0  0
   12.6683    7.1388   -2.5082 O   0  0  0  0  0  0  0  0  0  0  0  0
   10.4648    6.0429    1.0602 C   0  0  0  0  0  0  0  0  0  0  0  0
    9.1438    5.6064    1.1463 C   0  0  0  0  0  0  0  0  0  0  0  0
    6.8167   -0.5275    2.2763 N   0  0  0  0  0  0  0  0  0  0  0  0
    7.0157   -1.2473    1.0419 C   0  0  0  0  0  0  0  0  0  0  0  0
    6.7387   -1.1999    3.4517 N   0  0  0  0  0  0  0  0  0  0  0  0
    5.4591   -0.3277    6.2452 H   0  0  0  0  0  0  0  0  0  0  0  0
    7.2172   -0.1808    6.4364 H   0  0  0  0  0  0  0  0  0  0  0  0
    6.5065   -1.7403    5.9329 H   0  0  0  0  0  0  0  0  0  0  0  0
    6.3566    1.9923    4.3004 H   0  0  0  0  0  0  0  0  0  0  0  0
    6.5969    1.2643    0.4439 H   0  0  0  0  0  0  0  0  0  0  0  0
    7.1211    3.1650   -0.5683 H   0  0  0  0  0  0  0  0  0  0  0  0
    6.3751    5.5460    1.0207 H   0  0  0  0  0  0  0  0  0  0  0  0
    6.2922    5.4848   -0.7539 H   0  0  0  0  0  0  0  0  0  0  0  0
    8.1747    6.2029   -2.0550 H   0  0  0  0  0  0  0  0  0  0  0  0
   10.5188    6.9670   -2.2192 H   0  0  0  0  0  0  0  0  0  0  0  0
   13.4117    6.1411    1.4061 H   0  0  0  0  0  0  0  0  0  0  0  0
   12.5727    7.6623    1.7881 H   0  0  0  0  0  0  0  0  0  0  0  0
   15.2601    7.6879    1.1381 H   0  0  0  0  0  0  0  0  0  0  0  0
   14.1780    9.0005    0.6271 H   0  0  0  0  0  0  0  0  0  0  0  0
   15.0991    6.6165   -1.0773 H   0  0  0  0  0  0  0  0  0  0  0  0
   14.9240    8.3050   -1.5912 H   0  0  0  0  0  0  0  0  0  0  0  0
   11.0907    5.9839    1.9507 H   0  0  0  0  0  0  0  0  0  0  0  0
    8.7624    5.2215    2.0956 H   0  0  0  0  0  0  0  0  0  0  0  0
    7.8820   -0.8545    0.4826 H   0  0  0  0  0  0  0  0  0  0  0  0
    6.1225   -1.2166    0.3914 H   0  0  0  0  0  0  0  0  0  0  0  0
    7.2134   -2.2926    1.3079 H   0  0  0  0  0  0  0  0  0  0  0  0
  1  2  1  0
  1 25  1  0
  1 26  1  0
  1 27  1  0
  2  3  1  0
  2 24  2  0
  3  4  2  0
  3 28  1  0
  4  5  1  0
  4 22  1  0
  5  6  1  0
  5 29  1  0
  6  7  2  0
  6  8  1  0
  8  9  1  0
  8 30  1  0
  9 10  1  0
  9 31  1  0
  9 32  1  0
 10 11  2  0
 10 21  1  0
 11 12  1  0
 11 33  1  0
 12 13  2  0
 12 34  1  0
 13 14  1  0
 13 20  1  0
 14 15  1  0
 14 18  1  0
 15 16  1  0
 15 35  1  0
 15 36  1  0
 16 17  1  0
 16 37  1  0
 16 38  1  0
 17 18  1  0
 17 39  1  0
 17 40  1  0
 18 19  2  0
 20 21  2  0
 20 41  1  0
 21 42  1  0
 22 23  1  0
 22 24  1  0
 23 43  1  0
 23 44  1  0
 23 45  1  0
M  END

