
     RDKit          3D

 24 24  0  0  0  0  0  0  0  0999 V2000
    1.2186    0.0871    1.0816 N   0  0  0  0  0  0  0  0  0  0  0  0
    2.4895   -0.0097    0.5546 C   0  0  0  0  0  0  0  0  0  0  0  0
    3.2385    1.0863    0.4418 N   0  0  0  0  0  0  0  0  0  0  0  0
    4.4301    0.6671   -0.0493 N   0  0  0  0  0  0  0  0  0  0  0  0
    5.5162    1.6075   -0.1462 C   0  0  0  0  0  0  0  0  0  0  0  0
    6.1701    1.8749    1.2028 C   0  0  1  0  0  0  0  0  0  0  0  0
    6.7560    0.7361    1.6611 F   0  0  0  0  0  0  0  0  0  0  0  0
    7.1404    2.8113    1.0393 F   0  0  0  0  0  0  0  0  0  0  0  0
    4.4610   -0.6706   -0.2338 C   0  0  0  0  0  0  0  0  0  0  0  0
    3.2218   -1.1770    0.1384 C   0  0  0  0  0  0  0  0  0  0  0  0
    2.8928   -2.6450   -0.0205 C   0  0  1  0  0  0  0  0  0  0  0  0
    4.0614   -3.4306    0.0459 O   0  0  0  0  0  0  0  0  0  0  0  0
    1.8599   -3.2071    0.9683 C   0  0  1  0  0  0  0  0  0  0  0  0
    0.6326   -2.6743    0.7526 F   0  0  0  0  0  0  0  0  0  0  0  0
    1.7336   -4.5279    0.8194 F   0  0  0  0  0  0  0  0  0  0  0  0
    2.1954   -2.9670    2.2434 F   0  0  0  0  0  0  0  0  0  0  0  0
    0.8607    1.0351    1.1155 H   0  0  0  0  0  0  0  0  0  0  0  0
    0.5436   -0.6051    0.7866 H   0  0  0  0  0  0  0  0  0  0  0  0
    5.1323    2.5565   -0.5482 H   0  0  0  0  0  0  0  0  0  0  0  0
    6.2852    1.2169   -0.8291 H   0  0  0  0  0  0  0  0  0  0  0  0
    5.4494    2.2270    1.9600 H   0  0  0  0  0  0  0  0  0  0  0  0
    5.3381   -1.1842   -0.6199 H   0  0  0  0  0  0  0  0  0  0  0  0
    2.4596   -2.8478   -1.0164 H   0  0  0  0  0  0  0  0  0  0  0  0
    4.5132   -3.2063    0.8736 H   0  0  0  0  0  0  0  0  0  0  0  0
  1  2  1  0
  1 17  1  0
  1 18  1  0
  2  3  2  0
  2 10  1  0
  3  4  1  0
  4  5  1  0
  4  9  1  0
  5  6  1  0
  5 19  1  0
  5 20  1  0
  6  7  1  0
  6  8  1  0
  6 21  1  1
  9 10  2  0
  9 22  1  0
 10 11  1  0
 11 12  1  0
 11 13  1  0
 11 23  1  6
 12 24  1  0
 13 14  1  6
 13 15  1  0
 13 16  1  0
M  END

