
     RDKit          3D

 73 77  0  0  0  0  0  0  0  0999 V2000
    1.6846   -0.5016   -0.4870 C   0  0  0  0  0  0  0  0  0  0  0  0
    1.0267    0.3599    0.4171 O   0  0  0  0  0  0  0  0  0  0  0  0
    1.7558    1.0895    1.2920 C   0  0  0  0  0  0  0  0  0  0  0  0
    3.1560    1.0696    1.3744 C   0  0  0  0  0  0  0  0  0  0  0  0
    3.8062    1.8653    2.3246 C   0  0  0  0  0  0  0  0  0  0  0  0
    3.0912    2.7033    3.1891 C   0  0  0  0  0  0  0  0  0  0  0  0
    3.8199    3.5607    4.2265 C   0  0  1  0  0  0  0  0  0  0  0  0
    3.3085    4.9974    4.3436 C   0  0  0  0  0  0  0  0  0  0  0  0
    3.3199    5.8392    3.2437 C   0  0  0  0  0  0  0  0  0  0  0  0
    3.6566    5.3398    2.0402 O   0  0  0  0  0  0  0  0  0  0  0  0
    3.0092    7.2747    3.1730 C   0  0  0  0  0  0  0  0  0  0  0  0
    3.1186    8.1441    4.2672 C   0  0  0  0  0  0  0  0  0  0  0  0
    2.8438    9.4980    4.1076 C   0  0  0  0  0  0  0  0  0  0  0  0
    2.4471   10.0181    2.8650 C   0  0  0  0  0  0  0  0  0  0  0  0
    2.1608   11.3329    2.6978 O   0  0  0  0  0  0  0  0  0  0  0  0
    2.2380   12.2263    3.7899 C   0  0  0  0  0  0  0  0  0  0  0  0
    2.3341    9.1695    1.7246 C   0  0  0  0  0  0  0  0  0  0  0  0
    1.9115    9.7049    0.3372 C   0  0  1  0  0  0  0  0  0  0  0  0
    2.9243   10.7686   -0.1520 C   0  0  0  0  0  0  0  0  0  0  0  0
    1.8766    8.5841   -0.7201 C   0  0  0  0  0  0  0  0  0  0  0  0
    0.4910   10.3152    0.4116 C   0  0  0  0  0  0  0  0  0  0  0  0
    2.6285    7.8216    1.9248 C   0  0  0  0  0  0  0  0  0  0  0  0
    2.7734    5.2099    5.6826 C   0  0  0  0  0  0  0  0  0  0  0  0
    2.2475    6.1680    6.2177 O   0  0  0  0  0  0  0  0  0  0  0  0
    3.0014    3.8963    6.4517 C   0  0  0  0  0  0  0  0  0  0  0  0
    2.7072    3.6705    7.6098 O   0  0  0  0  0  0  0  0  0  0  0  0
    3.6601    3.0388    5.5954 N   0  0  0  0  0  0  0  0  0  0  0  0
    4.2321    1.8335    5.9796 C   0  0  0  0  0  0  0  0  0  0  0  0
    5.0329    1.1177    5.2277 N   0  0  0  0  0  0  0  0  0  0  0  0
    5.3727    0.0358    6.0234 C   0  0  0  0  0  0  0  0  0  0  0  0
    6.2006   -1.0634    5.7568 C   0  0  0  0  0  0  0  0  0  0  0  0
    6.3946   -2.0375    6.7395 C   0  0  0  0  0  0  0  0  0  0  0  0
    7.2859   -3.2236    6.4548 C   0  0  0  0  0  0  0  0  0  0  0  0
    5.7539   -1.9170    8.0112 C   0  0  0  0  0  0  0  0  0  0  0  0
    5.9685   -2.9734    9.0686 C   0  0  0  0  0  0  0  0  0  0  0  0
    4.9252   -0.8229    8.2848 C   0  0  0  0  0  0  0  0  0  0  0  0
    4.7434    0.1389    7.2891 C   0  0  0  0  0  0  0  0  0  0  0  0
    4.0078    1.3095    7.2269 N   0  0  0  0  0  0  0  0  0  0  0  0
    3.4505    1.7890    7.9311 H   0  0  0  0  0  0  0  0  0  0  0  0
    1.6849    2.7118    3.0940 C   0  0  0  0  0  0  0  0  0  0  0  0
    1.0249    1.9190    2.1657 C   0  0  0  0  0  0  0  0  0  0  0  0
    0.9002   -0.9832   -1.0858 H   0  0  0  0  0  0  0  0  0  0  0  0
    2.2644   -1.2816    0.0379 H   0  0  0  0  0  0  0  0  0  0  0  0
    2.3613    0.0524   -1.1620 H   0  0  0  0  0  0  0  0  0  0  0  0
    3.7499    0.4316    0.7201 H   0  0  0  0  0  0  0  0  0  0  0  0
    4.8934    1.8107    2.4128 H   0  0  0  0  0  0  0  0  0  0  0  0
    4.8960    3.5400    3.9842 H   0  0  0  0  0  0  0  0  0  0  0  0
    3.6127    4.3650    2.0441 H   0  0  0  0  0  0  0  0  0  0  0  0
    3.4071    7.7744    5.2471 H   0  0  0  0  0  0  0  0  0  0  0  0
    2.9387   10.1534    4.9722 H   0  0  0  0  0  0  0  0  0  0  0  0
    1.9483   13.2120    3.4022 H   0  0  0  0  0  0  0  0  0  0  0  0
    3.2624   12.2877    4.1966 H   0  0  0  0  0  0  0  0  0  0  0  0
    1.5461   11.9406    4.6009 H   0  0  0  0  0  0  0  0  0  0  0  0
    3.9334   10.3341   -0.2391 H   0  0  0  0  0  0  0  0  0  0  0  0
    2.9773   11.6268    0.5293 H   0  0  0  0  0  0  0  0  0  0  0  0
    2.6306   11.1389   -1.1481 H   0  0  0  0  0  0  0  0  0  0  0  0
    2.8617    8.1122   -0.8603 H   0  0  0  0  0  0  0  0  0  0  0  0
    1.5754    9.0104   -1.6897 H   0  0  0  0  0  0  0  0  0  0  0  0
    1.1504    7.7955   -0.4685 H   0  0  0  0  0  0  0  0  0  0  0  0
    0.4433   11.1563    1.1145 H   0  0  0  0  0  0  0  0  0  0  0  0
   -0.2427    9.5574    0.7306 H   0  0  0  0  0  0  0  0  0  0  0  0
    0.1856   10.6813   -0.5825 H   0  0  0  0  0  0  0  0  0  0  0  0
    2.5637    7.1352    1.0857 H   0  0  0  0  0  0  0  0  0  0  0  0
    6.6888   -1.1495    4.7831 H   0  0  0  0  0  0  0  0  0  0  0  0
    7.7010   -3.1733    5.4376 H   0  0  0  0  0  0  0  0  0  0  0  0
    6.7409   -4.1790    6.5463 H   0  0  0  0  0  0  0  0  0  0  0  0
    8.1343   -3.2803    7.1585 H   0  0  0  0  0  0  0  0  0  0  0  0
    5.6406   -3.9698    8.7255 H   0  0  0  0  0  0  0  0  0  0  0  0
    5.4124   -2.7384    9.9880 H   0  0  0  0  0  0  0  0  0  0  0  0
    7.0339   -3.0723    9.3390 H   0  0  0  0  0  0  0  0  0  0  0  0
    4.4350   -0.7311    9.2572 H   0  0  0  0  0  0  0  0  0  0  0  0
    1.0995    3.3551    3.7564 H   0  0  0  0  0  0  0  0  0  0  0  0
   -0.0639    1.9218    2.0873 H   0  0  0  0  0  0  0  0  0  0  0  0
  1  2  1  0
  1 42  1  0
  1 43  1  0
  1 44  1  0
  2  3  1  0
  3  4  2  0
  3 41  1  0
  4  5  1  0
  4 45  1  0
  5  6  2  0
  5 46  1  0
  6  7  1  0
  6 40  1  0
  7  8  1  0
  7 27  1  0
  7 47  1  6
  8  9  2  0
  8 23  1  0
  9 10  1  0
  9 11  1  0
 10 48  1  0
 11 12  2  0
 11 22  1  0
 12 13  1  0
 12 49  1  0
 13 14  2  0
 13 50  1  0
 14 15  1  0
 14 17  1  0
 15 16  1  0
 16 51  1  0
 16 52  1  0
 16 53  1  0
 17 18  1  0
 17 22  2  0
 18 19  1  6
 18 20  1  0
 18 21  1  0
 19 54  1  0
 19 55  1  0
 19 56  1  0
 20 57  1  0
 20 58  1  0
 20 59  1  0
 21 60  1  0
 21 61  1  0
 21 62  1  0
 22 63  1  0
 23 24  2  0
 23 25  1  0
 25 26  2  0
 25 27  1  0
 27 28  1  0
 28 29  2  0
 28 38  1  0
 29 30  1  0
 30 31  2  0
 30 37  1  0
 31 32  1  0
 31 64  1  0
 32 33  1  0
 32 34  2  0
 33 65  1  0
 33 66  1  0
 33 67  1  0
 34 35  1  0
 34 36  1  0
 35 68  1  0
 35 69  1  0
 35 70  1  0
 36 37  2  0
 36 71  1  0
 37 38  1  0
 38 39  1  0
 40 41  2  0
 40 72  1  0
 41 73  1  0
M  END

