
     RDKit          3D

 34 35  0  0  0  0  0  0  0  0999 V2000
    1.1938   -0.6110    0.2392 C   0  0  0  0  0  0  0  0  0  0  0  0
    2.4460   -1.0535   -0.2029 O   0  0  0  0  0  0  0  0  0  0  0  0
    2.9334   -0.5699   -1.3932 C   0  0  0  0  0  0  0  0  0  0  0  0
    2.2050    0.3272   -2.2414 C   0  0  0  0  0  0  0  0  0  0  0  0
    2.8000    0.6992   -3.4772 C   0  0  0  0  0  0  0  0  0  0  0  0
    4.0559    0.2692   -3.8465 C   0  0  0  0  0  0  0  0  0  0  0  0
    4.6303    0.6110   -5.2066 C   0  0  1  0  0  0  0  0  0  0  0  0
    5.8196    1.5891   -5.1593 C   0  0  0  0  0  0  0  0  0  0  0  0
    5.0743   -0.6784   -5.8057 N   0  0  0  0  0  0  0  0  0  0  0  0
    5.2829   -1.0224   -7.0605 C   0  0  0  0  0  0  0  0  0  0  0  0
    5.0813   -0.1122   -8.1614 C   0  0  0  0  0  0  0  0  0  0  0  0
    5.3151   -0.5200   -9.4529 C   0  0  0  0  0  0  0  0  0  0  0  0
    5.7505   -1.8417   -9.7146 C   0  0  0  0  0  0  0  0  0  0  0  0
    6.0353   -2.3347  -11.3343 Cl  0  0  0  0  0  0  0  0  0  0  0  0
    5.9490   -2.7607   -8.6570 C   0  0  0  0  0  0  0  0  0  0  0  0
    5.7221   -2.3663   -7.3615 C   0  0  0  0  0  0  0  0  0  0  0  0
    4.8102   -0.6699   -3.0255 C   0  0  0  0  0  0  0  0  0  0  0  0
    4.1836   -1.0124   -1.7790 C   0  0  0  0  0  0  0  0  0  0  0  0
    4.8595   -1.8614   -0.9618 F   0  0  0  0  0  0  0  0  0  0  0  0
    1.0009   -1.1117    1.1997 H   0  0  0  0  0  0  0  0  0  0  0  0
    0.3798   -0.8732   -0.4635 H   0  0  0  0  0  0  0  0  0  0  0  0
    1.1650    0.4834    0.4020 H   0  0  0  0  0  0  0  0  0  0  0  0
    1.2346    0.7230   -1.9547 H   0  0  0  0  0  0  0  0  0  0  0  0
    2.2231    1.3307   -4.1635 H   0  0  0  0  0  0  0  0  0  0  0  0
    3.8430    1.0248   -5.8555 H   0  0  0  0  0  0  0  0  0  0  0  0
    6.6160    1.2031   -4.5070 H   0  0  0  0  0  0  0  0  0  0  0  0
    5.4640    2.5353   -4.7293 H   0  0  0  0  0  0  0  0  0  0  0  0
    6.2480    1.7960   -6.1542 H   0  0  0  0  0  0  0  0  0  0  0  0
    5.1789   -1.3762   -5.0455 H   0  0  0  0  0  0  0  0  0  0  0  0
    4.7401    0.9019   -7.9639 H   0  0  0  0  0  0  0  0  0  0  0  0
    5.1638    0.1652  -10.2878 H   0  0  0  0  0  0  0  0  0  0  0  0
    6.2806   -3.7748   -8.8825 H   0  0  0  0  0  0  0  0  0  0  0  0
    5.8698   -3.0641   -6.5361 H   0  0  0  0  0  0  0  0  0  0  0  0
    5.9120   -0.6174   -2.9982 H   0  0  0  0  0  0  0  0  0  0  0  0
  1  2  1  0
  1 20  1  0
  1 21  1  0
  1 22  1  0
  2  3  1  0
  3  4  2  0
  3 18  1  0
  4  5  1  0
  4 23  1  0
  5  6  2  0
  5 24  1  0
  6  7  1  0
  6 17  1  0
  7  8  1  0
  7  9  1  0
  7 25  1  6
  8 26  1  0
  8 27  1  0
  8 28  1  0
  9 10  1  0
  9 29  1  0
 10 11  2  0
 10 16  1  0
 11 12  1  0
 11 30  1  0
 12 13  2  0
 12 31  1  0
 13 14  1  0
 13 15  1  0
 15 16  2  0
 15 32  1  0
 16 33  1  0
 17 18  2  0
 17 34  1  0
 18 19  1  0
M  END

