
     RDKit          3D

 90101  0  0  0  0  0  0  0  0999 V2000
    1.5271    0.4550   -0.1817 N   0  0  0  0  0  0  0  0  0  0  0  0
    2.6882    0.3661   -0.2140 C   0  0  0  0  0  0  0  0  0  0  0  0
    4.1122    0.2444   -0.2535 C   0  0  0  0  0  0  0  0  0  0  0  0
    4.6430   -1.0144   -0.2664 N   0  0  0  0  0  0  0  0  0  0  0  0
    5.9842   -1.0923   -0.3021 C   0  0  0  0  0  0  0  0  0  0  0  0
    6.6036   -2.4200   -0.3188 C   0  0  0  0  0  0  0  0  0  0  0  0
    5.7844   -3.5696   -0.2935 C   0  0  0  0  0  0  0  0  0  0  0  0
    6.3298   -4.8402   -0.3065 C   0  0  0  0  0  0  0  0  0  0  0  0
    7.7343   -5.0172   -0.3529 C   0  0  0  0  0  0  0  0  0  0  0  0
    8.3327   -6.3794   -0.3664 C   0  0  0  0  0  0  0  0  0  0  0  0
    9.4631   -6.6751   -1.1518 C   0  0  0  0  0  0  0  0  0  0  0  0
   10.0409   -7.9445   -1.1472 C   0  0  0  0  0  0  0  0  0  0  0  0
    9.4873   -8.9703   -0.3685 C   0  0  0  0  0  0  0  0  0  0  0  0
   10.0748  -10.2670   -0.3626 N   0  0  0  0  0  0  0  0  0  0  0  0
   10.6152  -10.9113    0.7519 C   0  0  0  0  0  0  0  0  0  0  0  0
   10.7197  -10.4631    2.0754 C   0  0  0  0  0  0  0  0  0  0  0  0
   11.3242  -11.3108    3.0043 C   0  0  0  0  0  0  0  0  0  0  0  0
   11.8190  -12.5755    2.6317 C   0  0  0  0  0  0  0  0  0  0  0  0
   11.7214  -13.0139    1.3117 C   0  0  0  0  0  0  0  0  0  0  0  0
   11.1188  -12.1816    0.3568 C   0  0  0  0  0  0  0  0  0  0  0  0
   10.8666  -12.3046   -1.0655 C   0  0  0  0  0  0  0  0  0  0  0  0
   11.1134  -13.3104   -2.0117 C   0  0  0  0  0  0  0  0  0  0  0  0
   10.7170  -13.1126   -3.3336 C   0  0  0  0  0  0  0  0  0  0  0  0
   10.0706  -11.9215   -3.7165 C   0  0  0  0  0  0  0  0  0  0  0  0
    9.8128  -10.9048   -2.7963 C   0  0  0  0  0  0  0  0  0  0  0  0
   10.2218  -11.1033   -1.4710 C   0  0  0  0  0  0  0  0  0  0  0  0
    8.3500   -8.6994    0.4046 C   0  0  0  0  0  0  0  0  0  0  0  0
    7.7903   -7.4215    0.4095 C   0  0  0  0  0  0  0  0  0  0  0  0
    8.5437   -3.8825   -0.3782 C   0  0  0  0  0  0  0  0  0  0  0  0
    8.0174   -2.5696   -0.3595 C   0  0  0  0  0  0  0  0  0  0  0  0
    8.8663   -1.3779   -0.3701 C   0  0  0  0  0  0  0  0  0  0  0  0
   10.2745   -1.4441   -0.3923 C   0  0  0  0  0  0  0  0  0  0  0  0
   11.0831   -0.3048   -0.4124 C   0  0  0  0  0  0  0  0  0  0  0  0
   12.5615   -0.4195   -0.4380 C   0  0  0  0  0  0  0  0  0  0  0  0
   13.3596    0.5277   -1.1154 C   0  0  0  0  0  0  0  0  0  0  0  0
   14.7501    0.4338   -1.1408 C   0  0  0  0  0  0  0  0  0  0  0  0
   15.3761   -0.6309   -0.4863 C   0  0  0  0  0  0  0  0  0  0  0  0
   16.8212   -0.7378   -0.5098 N   0  0  0  0  0  0  0  0  0  0  0  0
   17.6766   -0.1738    0.4115 C   0  0  0  0  0  0  0  0  0  0  0  0
   17.3522    0.6002    1.5409 C   0  0  0  0  0  0  0  0  0  0  0  0
   18.4099    1.0573    2.3267 C   0  0  0  0  0  0  0  0  0  0  0  0
   19.7389    0.7510    1.9936 C   0  0  0  0  0  0  0  0  0  0  0  0
   20.0577   -0.0280    0.8564 C   0  0  0  0  0  0  0  0  0  0  0  0
   19.0237   -0.4932    0.0608 C   0  0  0  0  0  0  0  0  0  0  0  0
   18.9433   -1.3029   -1.1556 C   0  0  0  0  0  0  0  0  0  0  0  0
   19.8708   -1.9157   -1.9826 C   0  0  0  0  0  0  0  0  0  0  0  0
   19.4032   -2.6403   -3.1039 C   0  0  0  0  0  0  0  0  0  0  0  0
   18.0337   -2.7479   -3.3901 C   0  0  0  0  0  0  0  0  0  0  0  0
   17.0815   -2.1385   -2.5717 C   0  0  0  0  0  0  0  0  0  0  0  0
   17.5541   -1.4204   -1.4594 C   0  0  0  0  0  0  0  0  0  0  0  0
   14.6211   -1.5918    0.1924 C   0  0  0  0  0  0  0  0  0  0  0  0
   13.2323   -1.4755    0.2166 C   0  0  0  0  0  0  0  0  0  0  0  0
   10.4498    0.9657   -0.4092 C   0  0  0  0  0  0  0  0  0  0  0  0
    9.0745    1.0664   -0.3770 C   0  0  0  0  0  0  0  0  0  0  0  0
    8.2493   -0.0885   -0.3579 C   0  0  0  0  0  0  0  0  0  0  0  0
    6.8136    0.0487   -0.3246 C   0  0  0  0  0  0  0  0  0  0  0  0
    6.2749    1.3171   -0.3136 N   0  0  0  0  0  0  0  0  0  0  0  0
    4.9481    1.3865   -0.2786 C   0  0  0  0  0  0  0  0  0  0  0  0
    4.3728    2.7158   -0.2662 C   0  0  0  0  0  0  0  0  0  0  0  0
    3.9309    3.7888   -0.2570 N   0  0  0  0  0  0  0  0  0  0  0  0
    4.7054   -3.4129   -0.2702 H   0  0  0  0  0  0  0  0  0  0  0  0
    5.6718   -5.7123   -0.3086 H   0  0  0  0  0  0  0  0  0  0  0  0
    9.8899   -5.8972   -1.7887 H   0  0  0  0  0  0  0  0  0  0  0  0
   10.9248   -8.1504   -1.7546 H   0  0  0  0  0  0  0  0  0  0  0  0
   10.3401   -9.4839    2.3717 H   0  0  0  0  0  0  0  0  0  0  0  0
   11.4134  -10.9839    4.0436 H   0  0  0  0  0  0  0  0  0  0  0  0
   12.2833  -13.2163    3.3852 H   0  0  0  0  0  0  0  0  0  0  0  0
   12.1103  -13.9940    1.0233 H   0  0  0  0  0  0  0  0  0  0  0  0
   11.6066  -14.2395   -1.7142 H   0  0  0  0  0  0  0  0  0  0  0  0
   10.9027  -13.8891   -4.0795 H   0  0  0  0  0  0  0  0  0  0  0  0
    9.7586  -11.7898   -4.7558 H   0  0  0  0  0  0  0  0  0  0  0  0
    9.3038   -9.9884   -3.0994 H   0  0  0  0  0  0  0  0  0  0  0  0
    7.9072   -9.4961    1.0062 H   0  0  0  0  0  0  0  0  0  0  0  0
    6.9193   -7.2250    1.0382 H   0  0  0  0  0  0  0  0  0  0  0  0
    9.6245   -4.0247   -0.3850 H   0  0  0  0  0  0  0  0  0  0  0  0
   10.7537   -2.4228   -0.4264 H   0  0  0  0  0  0  0  0  0  0  0  0
   12.8786    1.3470   -1.6515 H   0  0  0  0  0  0  0  0  0  0  0  0
   15.3438    1.1780   -1.6769 H   0  0  0  0  0  0  0  0  0  0  0  0
   16.3139    0.8265    1.7830 H   0  0  0  0  0  0  0  0  0  0  0  0
   18.2017    1.6604    3.2116 H   0  0  0  0  0  0  0  0  0  0  0  0
   20.5477    1.1215    2.6260 H   0  0  0  0  0  0  0  0  0  0  0  0
   21.1001   -0.2515    0.6217 H   0  0  0  0  0  0  0  0  0  0  0  0
   20.9420   -1.8483   -1.7833 H   0  0  0  0  0  0  0  0  0  0  0  0
   20.1269   -3.1268   -3.7603 H   0  0  0  0  0  0  0  0  0  0  0  0
   17.7085   -3.3153   -4.2633 H   0  0  0  0  0  0  0  0  0  0  0  0
   16.0137   -2.2113   -2.7777 H   0  0  0  0  0  0  0  0  0  0  0  0
   15.1147   -2.4169    0.7115 H   0  0  0  0  0  0  0  0  0  0  0  0
   12.6533   -2.2112    0.7766 H   0  0  0  0  0  0  0  0  0  0  0  0
   11.0512    1.8781   -0.3962 H   0  0  0  0  0  0  0  0  0  0  0  0
    8.5773    2.0365   -0.3567 H   0  0  0  0  0  0  0  0  0  0  0  0
  1  2  3  0
  2  3  1  0
  3  4  2  0
  3 58  1  0
  4  5  1  0
  5  6  2  0
  5 56  1  0
  6  7  1  0
  6 30  1  0
  7  8  2  0
  7 61  1  0
  8  9  1  0
  8 62  1  0
  9 10  1  0
  9 29  2  0
 10 11  2  0
 10 28  1  0
 11 12  1  0
 11 63  1  0
 12 13  2  0
 12 64  1  0
 13 14  1  0
 13 27  1  0
 14 15  1  0
 14 26  1  0
 15 16  2  0
 15 20  1  0
 16 17  1  0
 16 65  1  0
 17 18  2  0
 17 66  1  0
 18 19  1  0
 18 67  1  0
 19 20  2  0
 19 68  1  0
 20 21  1  0
 21 22  1  0
 21 26  2  0
 22 23  2  0
 22 69  1  0
 23 24  1  0
 23 70  1  0
 24 25  2  0
 24 71  1  0
 25 26  1  0
 25 72  1  0
 27 28  2  0
 27 73  1  0
 28 74  1  0
 29 30  1  0
 29 75  1  0
 30 31  2  0
 31 32  1  0
 31 55  1  0
 32 33  2  0
 32 76  1  0
 33 34  1  0
 33 53  1  0
 34 35  2  0
 34 52  1  0
 35 36  1  0
 35 77  1  0
 36 37  2  0
 36 78  1  0
 37 38  1  0
 37 51  1  0
 38 39  1  0
 38 50  1  0
 39 40  2  0
 39 44  1  0
 40 41  1  0
 40 79  1  0
 41 42  2  0
 41 80  1  0
 42 43  1  0
 42 81  1  0
 43 44  2  0
 43 82  1  0
 44 45  1  0
 45 46  1  0
 45 50  2  0
 46 47  2  0
 46 83  1  0
 47 48  1  0
 47 84  1  0
 48 49  2  0
 48 85  1  0
 49 50  1  0
 49 86  1  0
 51 52  2  0
 51 87  1  0
 52 88  1  0
 53 54  2  0
 53 89  1  0
 54 55  1  0
 54 90  1  0
 55 56  2  0
 56 57  1  0
 57 58  2  0
 58 59  1  0
 59 60  3  0
M  END

