
     RDKit          3D

 41 44  0  0  0  0  0  0  0  0999 V2000
    4.0527    2.4075    0.4591 O   0  0  0  0  0  0  0  0  0  0  0  0
    3.0634    3.1102    0.4940 C   0  0  0  0  0  0  0  0  0  0  0  0
    1.7856    2.7130    1.2398 C   0  0  0  0  0  0  0  0  0  0  0  0
    2.0615    1.2050    2.2175 S   0  0  0  0  0  0  0  0  0  0  0  0
    3.0115    1.8833    3.4963 C   0  0  0  0  0  0  0  0  0  0  0  0
    3.2060    3.1784    3.7050 N   0  0  0  0  0  0  0  0  0  0  0  0
    3.8925    3.3222    4.8409 N   0  0  0  0  0  0  0  0  0  0  0  0
    4.1363    2.0707    5.3594 C   0  0  0  0  0  0  0  0  0  0  0  0
    4.8794    1.8564    6.5666 C   0  0  0  0  0  0  0  0  0  0  0  0
    5.8005    2.9035    6.9900 C   0  0  0  0  0  0  0  0  0  0  0  0
    6.5882    2.7216    8.1147 C   0  0  0  0  0  0  0  0  0  0  0  0
    6.4739    1.5706    8.9163 C   0  0  0  0  0  0  0  0  0  0  0  0
    5.4974    0.5816    8.5849 C   0  0  0  0  0  0  0  0  0  0  0  0
    4.7385    0.7488    7.4491 C   0  0  0  0  0  0  0  0  0  0  0  0
    3.7731   -0.1655    7.1814 F   0  0  0  0  0  0  0  0  0  0  0  0
    3.6110    1.1256    4.4902 N   0  0  0  0  0  0  0  0  0  0  0  0
    3.8322   -0.2987    4.4365 C   0  0  1  0  0  0  0  0  0  0  0  0
    4.4709   -0.8897    3.1987 C   0  0  0  0  0  0  0  0  0  0  0  0
    5.2420   -0.8147    4.4874 C   0  0  0  0  0  0  0  0  0  0  0  0
    3.0481    4.3345   -0.1433 N   0  0  0  0  0  0  0  0  0  0  0  0
    4.2408    4.8295   -0.8351 C   0  0  0  0  0  0  0  0  0  0  0  0
    3.8891    6.3088   -1.0929 C   0  0  0  0  0  0  0  0  0  0  0  0
    2.4386    6.2931   -0.9999 N   0  0  0  0  0  0  0  0  0  0  0  0
    1.9483    5.2146   -0.3182 C   0  0  0  0  0  0  0  0  0  0  0  0
    0.8115    5.0219    0.0524 O   0  0  0  0  0  0  0  0  0  0  0  0
    0.9673    2.4890    0.5413 H   0  0  0  0  0  0  0  0  0  0  0  0
    1.4460    3.5179    1.9021 H   0  0  0  0  0  0  0  0  0  0  0  0
    5.8671    3.8052    6.3818 H   0  0  0  0  0  0  0  0  0  0  0  0
    7.3027    3.5012    8.3954 H   0  0  0  0  0  0  0  0  0  0  0  0
    7.0914    1.4477    9.8079 H   0  0  0  0  0  0  0  0  0  0  0  0
    5.3132   -0.2870    9.2192 H   0  0  0  0  0  0  0  0  0  0  0  0
    3.0691   -0.8846    4.9560 H   0  0  0  0  0  0  0  0  0  0  0  0
    4.7565   -0.2065    2.3941 H   0  0  0  0  0  0  0  0  0  0  0  0
    4.0909   -1.8569    2.8581 H   0  0  0  0  0  0  0  0  0  0  0  0
    6.0420   -0.0742    4.5623 H   0  0  0  0  0  0  0  0  0  0  0  0
    5.4116   -1.7243    5.0682 H   0  0  0  0  0  0  0  0  0  0  0  0
    4.3957    4.2704   -1.7729 H   0  0  0  0  0  0  0  0  0  0  0  0
    5.1331    4.6934   -0.2105 H   0  0  0  0  0  0  0  0  0  0  0  0
    4.2333    6.6454   -2.0822 H   0  0  0  0  0  0  0  0  0  0  0  0
    4.3398    6.9685   -0.3291 H   0  0  0  0  0  0  0  0  0  0  0  0
    1.8597    7.1201   -1.0849 H   0  0  0  0  0  0  0  0  0  0  0  0
  1  2  2  0
  2  3  1  0
  2 20  1  0
  3  4  1  0
  3 26  1  0
  3 27  1  0
  4  5  1  0
  5  6  2  0
  5 16  1  0
  6  7  1  0
  7  8  2  0
  8  9  1  0
  8 16  1  0
  9 10  2  0
  9 14  1  0
 10 11  1  0
 10 28  1  0
 11 12  2  0
 11 29  1  0
 12 13  1  0
 12 30  1  0
 13 14  2  0
 13 31  1  0
 14 15  1  0
 16 17  1  0
 17 18  1  0
 17 19  1  0
 17 32  1  1
 18 19  1  0
 18 33  1  0
 18 34  1  0
 19 35  1  0
 19 36  1  0
 20 21  1  0
 20 24  1  0
 21 22  1  0
 21 37  1  0
 21 38  1  0
 22 23  1  0
 22 39  1  0
 22 40  1  0
 23 24  1  0
 23 41  1  0
 24 25  2  0
M  END

