
     RDKit          3D

 66 69  0  0  0  0  0  0  0  0999 V2000
    2.6948   -1.2657   -0.2911 C   0  0  0  0  0  0  0  0  0  0  0  0
    2.2229    0.0768   -0.4032 O   0  0  0  0  0  0  0  0  0  0  0  0
    2.9467    1.1004    0.0233 C   0  0  0  0  0  0  0  0  0  0  0  0
    4.2301    0.9843    0.6215 C   0  0  0  0  0  0  0  0  0  0  0  0
    4.8942    2.1205    1.0280 C   0  0  0  0  0  0  0  0  0  0  0  0
    4.3199    3.4202    0.8594 C   0  0  0  0  0  0  0  0  0  0  0  0
    5.0371    4.5821    1.2892 C   0  0  0  0  0  0  0  0  0  0  0  0
    4.6769    5.9675    1.2223 C   0  0  0  0  0  0  0  0  0  0  0  0
    5.7357    6.6420    1.7792 C   0  0  0  0  0  0  0  0  0  0  0  0
    6.0641    8.1154    1.9147 C   0  0  0  0  0  0  0  0  0  0  0  0
    7.2038    8.4869    1.6161 O   0  0  0  0  0  0  0  0  0  0  0  0
    5.0436    8.8580    2.3578 N   0  0  0  0  0  0  0  0  0  0  0  0
    5.1083   10.2171    2.5292 N   0  0  0  0  0  0  0  0  0  0  0  0
    3.9750   10.7208    3.0281 C   0  0  0  0  0  0  0  0  0  0  0  0
    3.7874   12.1013    3.2935 C   0  0  0  0  0  0  0  0  0  0  0  0
    4.8048   13.0811    3.0512 C   0  0  0  0  0  0  0  0  0  0  0  0
    4.5994   14.4291    3.3199 C   0  0  0  0  0  0  0  0  0  0  0  0
    3.3785   14.8829    3.8418 C   0  0  0  0  0  0  0  0  0  0  0  0
    2.3564   13.9383    4.0904 C   0  0  0  0  0  0  0  0  0  0  0  0
    2.5501   12.5911    3.8267 C   0  0  0  0  0  0  0  0  0  0  0  0
    1.5617   11.6618    4.0652 O   0  0  0  0  0  0  0  0  0  0  0  0
    6.6621    5.6644    2.1328 N   0  0  0  0  0  0  0  0  0  0  0  0
    7.9723    5.8918    2.7738 C   0  0  0  0  0  0  0  0  0  0  0  0
    7.8478    6.1948    4.2532 C   0  0  0  0  0  0  0  0  0  0  0  0
    7.7206    5.1594    5.1867 C   0  0  0  0  0  0  0  0  0  0  0  0
    7.6069    5.4349    6.5523 C   0  0  0  0  0  0  0  0  0  0  0  0
    7.6123    6.7546    7.0344 C   0  0  0  0  0  0  0  0  0  0  0  0
    7.4902    7.1002    8.5310 C   0  0  1  0  0  0  0  0  0  0  0  0
    7.3542    5.8443    9.4107 C   0  0  0  0  0  0  0  0  0  0  0  0
    8.7521    7.8724    8.9817 C   0  0  0  0  0  0  0  0  0  0  0  0
    6.2404    7.9836    8.7522 C   0  0  0  0  0  0  0  0  0  0  0  0
    7.7379    7.7843    6.0829 C   0  0  0  0  0  0  0  0  0  0  0  0
    7.8525    7.5191    4.7186 C   0  0  0  0  0  0  0  0  0  0  0  0
    6.2661    4.4489    1.8529 N   0  0  0  0  0  0  0  0  0  0  0  0
    3.0288    3.5146    0.2556 C   0  0  0  0  0  0  0  0  0  0  0  0
    2.3587    2.3872   -0.1514 C   0  0  0  0  0  0  0  0  0  0  0  0
    1.9059   -1.8974   -0.7144 H   0  0  0  0  0  0  0  0  0  0  0  0
    2.8587   -1.5358    0.7635 H   0  0  0  0  0  0  0  0  0  0  0  0
    3.6248   -1.4021   -0.8643 H   0  0  0  0  0  0  0  0  0  0  0  0
    4.6933    0.0083    0.7605 H   0  0  0  0  0  0  0  0  0  0  0  0
    5.8802    2.0555    1.4878 H   0  0  0  0  0  0  0  0  0  0  0  0
    3.7798    6.4152    0.8044 H   0  0  0  0  0  0  0  0  0  0  0  0
    4.1822    8.3757    2.6275 H   0  0  0  0  0  0  0  0  0  0  0  0
    3.1274   10.0510    3.2520 H   0  0  0  0  0  0  0  0  0  0  0  0
    5.7531   12.7269    2.6444 H   0  0  0  0  0  0  0  0  0  0  0  0
    5.4027   15.1448    3.1198 H   0  0  0  0  0  0  0  0  0  0  0  0
    3.2118   15.9407    4.0543 H   0  0  0  0  0  0  0  0  0  0  0  0
    1.3918   14.2651    4.4976 H   0  0  0  0  0  0  0  0  0  0  0  0
    0.7996   12.1311    4.4263 H   0  0  0  0  0  0  0  0  0  0  0  0
    8.4232    6.7350    2.2370 H   0  0  0  0  0  0  0  0  0  0  0  0
    8.5389    4.9689    2.5977 H   0  0  0  0  0  0  0  0  0  0  0  0
    7.7157    4.1190    4.8476 H   0  0  0  0  0  0  0  0  0  0  0  0
    7.5170    4.5964    7.2432 H   0  0  0  0  0  0  0  0  0  0  0  0
    8.2303    5.1821    9.3242 H   0  0  0  0  0  0  0  0  0  0  0  0
    6.4558    5.2593    9.1575 H   0  0  0  0  0  0  0  0  0  0  0  0
    7.2675    6.1390   10.4683 H   0  0  0  0  0  0  0  0  0  0  0  0
    9.6598    7.2640    8.8407 H   0  0  0  0  0  0  0  0  0  0  0  0
    8.6800    8.1344   10.0501 H   0  0  0  0  0  0  0  0  0  0  0  0
    8.8845    8.8078    8.4177 H   0  0  0  0  0  0  0  0  0  0  0  0
    5.3236    7.4567    8.4431 H   0  0  0  0  0  0  0  0  0  0  0  0
    6.2927    8.9230    8.1822 H   0  0  0  0  0  0  0  0  0  0  0  0
    6.1398    8.2456    9.8183 H   0  0  0  0  0  0  0  0  0  0  0  0
    7.7435    8.8278    6.4046 H   0  0  0  0  0  0  0  0  0  0  0  0
    7.9384    8.3427    4.0053 H   0  0  0  0  0  0  0  0  0  0  0  0
    2.5707    4.4936    0.1165 H   0  0  0  0  0  0  0  0  0  0  0  0
    1.3725    2.4393   -0.6144 H   0  0  0  0  0  0  0  0  0  0  0  0
  1  2  1  0
  1 37  1  0
  1 38  1  0
  1 39  1  0
  2  3  1  0
  3  4  2  0
  3 36  1  0
  4  5  1  0
  4 40  1  0
  5  6  2  0
  5 41  1  0
  6  7  1  0
  6 35  1  0
  7  8  1  0
  7 34  2  0
  8  9  2  0
  8 42  1  0
  9 10  1  0
  9 22  1  0
 10 11  2  0
 10 12  1  0
 12 13  1  0
 12 43  1  0
 13 14  2  0
 14 15  1  0
 14 44  1  0
 15 16  2  0
 15 20  1  0
 16 17  1  0
 16 45  1  0
 17 18  2  0
 17 46  1  0
 18 19  1  0
 18 47  1  0
 19 20  2  0
 19 48  1  0
 20 21  1  0
 21 49  1  0
 22 23  1  0
 22 34  1  0
 23 24  1  0
 23 50  1  0
 23 51  1  0
 24 25  2  0
 24 33  1  0
 25 26  1  0
 25 52  1  0
 26 27  2  0
 26 53  1  0
 27 28  1  0
 27 32  1  0
 28 29  1  1
 28 30  1  0
 28 31  1  0
 29 54  1  0
 29 55  1  0
 29 56  1  0
 30 57  1  0
 30 58  1  0
 30 59  1  0
 31 60  1  0
 31 61  1  0
 31 62  1  0
 32 33  2  0
 32 63  1  0
 33 64  1  0
 35 36  2  0
 35 65  1  0
 36 66  1  0
M  END

