
     RDKit          3D

 68 73  0  0  0  0  0  0  0  0999 V2000
   -0.0589   -3.6330    6.5794 C   0  0  0  0  0  0  0  0  0  0  0  0
    0.1273   -3.3684    5.1687 N   0  0  0  0  0  0  0  0  0  0  0  0
   -0.9057   -3.2620    4.3022 C   0  0  0  0  0  0  0  0  0  0  0  0
   -2.0808   -3.4086    4.6055 O   0  0  0  0  0  0  0  0  0  0  0  0
   -0.4847   -2.9689    2.8295 C   0  0  1  0  0  0  0  0  0  0  0  0
   -1.7101   -2.7010    1.9207 C   0  0  0  0  0  0  0  0  0  0  0  0
   -1.4016   -1.3894    1.1755 C   0  0  0  0  0  0  0  0  0  0  0  0
   -0.4455   -0.6568    2.1212 C   0  0  0  0  0  0  0  0  0  0  0  0
    0.3448   -1.7460    2.7212 N   0  0  0  0  0  0  0  0  0  0  0  0
    2.0002   -1.8185    2.5303 S   0  0  1  0  0  0  0  0  0  0  0  0
    2.4849   -0.4452    2.6490 O   0  0  0  0  0  0  0  0  0  0  0  0
    2.4493   -2.8725    3.4561 O   0  0  0  0  0  0  0  0  0  0  0  0
    2.3395   -2.4573    0.8650 C   0  0  0  0  0  0  0  0  0  0  0  0
    2.4397   -3.8518    0.7724 C   0  0  0  0  0  0  0  0  0  0  0  0
    2.4823   -4.4783   -0.4745 C   0  0  0  0  0  0  0  0  0  0  0  0
    2.4026   -3.7056   -1.6359 C   0  0  0  0  0  0  0  0  0  0  0  0
    2.3290   -2.3171   -1.5450 C   0  0  0  0  0  0  0  0  0  0  0  0
    2.3280   -1.6453   -0.3013 C   0  0  0  0  0  0  0  0  0  0  0  0
    2.3910   -0.1677   -0.3275 C   0  0  0  0  0  0  0  0  0  0  0  0
    1.4717    0.5745   -1.0830 C   0  0  0  0  0  0  0  0  0  0  0  0
    1.5906    1.9613   -1.1442 C   0  0  0  0  0  0  0  0  0  0  0  0
    2.6589    2.6566   -0.4959 C   0  0  0  0  0  0  0  0  0  0  0  0
    2.7004    4.0024   -0.5992 N   0  0  0  0  0  0  0  0  0  0  0  0
    3.7361    4.5871    0.0320 C   0  0  0  0  0  0  0  0  0  0  0  0
    3.7621    5.9405   -0.0642 N   0  0  0  0  0  0  0  0  0  0  0  0
    4.7350    4.0208    0.7234 N   0  0  0  0  0  0  0  0  0  0  0  0
    4.7390    2.6657    0.8295 C   0  0  0  0  0  0  0  0  0  0  0  0
    5.8620    1.9851    1.4997 C   0  0  0  0  0  0  0  0  0  0  0  0
    6.0615    0.7644    1.3652 O   0  0  0  0  0  0  0  0  0  0  0  0
    6.7463    2.7070    2.2824 N   0  0  0  0  0  0  0  0  0  0  0  0
    7.8409    1.9497    2.8991 C   0  0  0  0  0  0  0  0  0  0  0  0
    8.4339    2.9253    3.8772 C   0  0  0  0  0  0  0  0  0  0  0  0
    9.5104    2.7568    4.7504 C   0  0  0  0  0  0  0  0  0  0  0  0
    9.8782    3.8180    5.5854 C   0  0  0  0  0  0  0  0  0  0  0  0
    9.1764    5.0302    5.5453 C   0  0  0  0  0  0  0  0  0  0  0  0
    8.0985    5.1965    4.6682 C   0  0  0  0  0  0  0  0  0  0  0  0
    7.7341    4.1355    3.8369 C   0  0  0  0  0  0  0  0  0  0  0  0
    6.6315    4.0721    2.8105 C   0  0  0  0  0  0  0  0  0  0  0  0
    3.6450    1.9033    0.2228 C   0  0  0  0  0  0  0  0  0  0  0  0
    3.4829    0.5190    0.3107 C   0  0  0  0  0  0  0  0  0  0  0  0
    0.4837   -4.5418    6.8900 H   0  0  0  0  0  0  0  0  0  0  0  0
   -1.1312   -3.7790    6.7634 H   0  0  0  0  0  0  0  0  0  0  0  0
    0.2970   -2.7915    7.1984 H   0  0  0  0  0  0  0  0  0  0  0  0
    1.0691   -3.2056    4.8128 H   0  0  0  0  0  0  0  0  0  0  0  0
    0.0971   -3.8392    2.4856 H   0  0  0  0  0  0  0  0  0  0  0  0
   -2.5947   -2.6070    2.5658 H   0  0  0  0  0  0  0  0  0  0  0  0
   -1.8947   -3.5404    1.2354 H   0  0  0  0  0  0  0  0  0  0  0  0
   -2.3064   -0.8038    0.9539 H   0  0  0  0  0  0  0  0  0  0  0  0
   -0.8907   -1.5911    0.2195 H   0  0  0  0  0  0  0  0  0  0  0  0
   -0.9953   -0.1359    2.9243 H   0  0  0  0  0  0  0  0  0  0  0  0
    0.2101    0.0803    1.6404 H   0  0  0  0  0  0  0  0  0  0  0  0
    2.4898   -4.4360    1.6916 H   0  0  0  0  0  0  0  0  0  0  0  0
    2.5715   -5.5653   -0.5340 H   0  0  0  0  0  0  0  0  0  0  0  0
    2.4254   -4.1828   -2.6186 H   0  0  0  0  0  0  0  0  0  0  0  0
    2.3293   -1.7150   -2.4561 H   0  0  0  0  0  0  0  0  0  0  0  0
    0.6457    0.0729   -1.5921 H   0  0  0  0  0  0  0  0  0  0  0  0
    0.8672    2.5694   -1.6915 H   0  0  0  0  0  0  0  0  0  0  0  0
    3.0326    6.4058   -0.5895 H   0  0  0  0  0  0  0  0  0  0  0  0
    4.5160    6.4591    0.3678 H   0  0  0  0  0  0  0  0  0  0  0  0
    8.5680    1.6048    2.1393 H   0  0  0  0  0  0  0  0  0  0  0  0
    7.4574    1.0315    3.3795 H   0  0  0  0  0  0  0  0  0  0  0  0
   10.0592    1.8115    4.7849 H   0  0  0  0  0  0  0  0  0  0  0  0
   10.7185    3.7005    6.2747 H   0  0  0  0  0  0  0  0  0  0  0  0
    9.4733    5.8509    6.2035 H   0  0  0  0  0  0  0  0  0  0  0  0
    7.5530    6.1442    4.6386 H   0  0  0  0  0  0  0  0  0  0  0  0
    6.7568    4.8287    2.0190 H   0  0  0  0  0  0  0  0  0  0  0  0
    5.6362    4.2553    3.2528 H   0  0  0  0  0  0  0  0  0  0  0  0
    4.2455   -0.0459    0.8406 H   0  0  0  0  0  0  0  0  0  0  0  0
  1  2  1  0
  1 41  1  0
  1 42  1  0
  1 43  1  0
  2  3  1  0
  2 44  1  0
  3  4  2  0
  3  5  1  0
  5  6  1  0
  5  9  1  0
  5 45  1  6
  6  7  1  0
  6 46  1  0
  6 47  1  0
  7  8  1  0
  7 48  1  0
  7 49  1  0
  8  9  1  0
  8 50  1  0
  8 51  1  0
  9 10  1  0
 10 11  2  0
 10 12  2  0
 10 13  1  6
 13 14  2  0
 13 18  1  0
 14 15  1  0
 14 52  1  0
 15 16  2  0
 15 53  1  0
 16 17  1  0
 16 54  1  0
 17 18  2  0
 17 55  1  0
 18 19  1  0
 19 20  2  0
 19 40  1  0
 20 21  1  0
 20 56  1  0
 21 22  2  0
 21 57  1  0
 22 23  1  0
 22 39  1  0
 23 24  2  0
 24 25  1  0
 24 26  1  0
 25 58  1  0
 25 59  1  0
 26 27  2  0
 27 28  1  0
 27 39  1  0
 28 29  2  0
 28 30  1  0
 30 31  1  0
 30 38  1  0
 31 32  1  0
 31 60  1  0
 31 61  1  0
 32 33  1  0
 32 37  2  0
 33 34  2  0
 33 62  1  0
 34 35  1  0
 34 63  1  0
 35 36  2  0
 35 64  1  0
 36 37  1  0
 36 65  1  0
 37 38  1  0
 38 66  1  0
 38 67  1  0
 39 40  2  0
 40 68  1  0
M  END

