
     RDKit          3D

 45 46  0  0  0  0  0  0  0  0999 V2000
    1.2301   -0.4775    0.2589 C   0  0  0  0  0  0  0  0  0  0  0  0
    2.5110    0.0647   -0.0484 O   0  0  0  0  0  0  0  0  0  0  0  0
    3.3344   -0.4784   -0.9614 C   0  0  0  0  0  0  0  0  0  0  0  0
    4.4713    0.2427   -1.2988 C   0  0  0  0  0  0  0  0  0  0  0  0
    5.4092   -0.2767   -2.2204 C   0  0  0  0  0  0  0  0  0  0  0  0
    5.2074   -1.4892   -2.8270 C   0  0  0  0  0  0  0  0  0  0  0  0
    4.0638   -2.1979   -2.5270 N   0  0  0  0  0  0  0  0  0  0  0  0
    3.6188   -3.4523   -2.9434 C   0  0  0  0  0  0  0  0  0  0  0  0
    4.2111   -4.3308   -3.9749 C   0  0  0  0  0  0  0  0  0  0  0  0
    4.0217   -5.5397   -3.9548 O   0  0  0  0  0  0  0  0  0  0  0  0
    4.9578   -3.7239   -4.9640 N   0  0  0  0  0  0  0  0  0  0  0  0
    5.5007   -4.4940   -6.0735 C   0  0  0  0  0  0  0  0  0  0  0  0
    4.5131   -4.7111   -7.2273 C   0  0  0  0  0  0  0  0  0  0  0  0
    5.1352   -5.4472   -8.4066 C   0  0  0  0  0  0  0  0  0  0  0  0
    5.5898   -6.7051   -7.9694 O   0  0  0  0  0  0  0  0  0  0  0  0
    6.0868   -7.5856   -8.9696 C   0  0  1  0  0  0  0  0  0  0  0  0
    7.4952   -7.1945   -9.4246 C   0  0  0  0  0  0  0  0  0  0  0  0
    6.0368   -8.9897   -8.3800 C   0  0  0  0  0  0  0  0  0  0  0  0
    2.4493   -3.6976   -2.2080 C   0  0  0  0  0  0  0  0  0  0  0  0
    1.5860   -4.9178   -2.2507 C   0  0  0  0  0  0  0  0  0  0  0  0
    2.1600   -2.6540   -1.4008 N   0  0  0  0  0  0  0  0  0  0  0  0
    3.1278   -1.7522   -1.5805 C   0  0  0  0  0  0  0  0  0  0  0  0
    0.7828    0.2259    0.9746 H   0  0  0  0  0  0  0  0  0  0  0  0
    1.3070   -1.4783    0.7046 H   0  0  0  0  0  0  0  0  0  0  0  0
    0.5971   -0.5490   -0.6385 H   0  0  0  0  0  0  0  0  0  0  0  0
    4.6271    1.2102   -0.8193 H   0  0  0  0  0  0  0  0  0  0  0  0
    6.3158    0.2841   -2.4537 H   0  0  0  0  0  0  0  0  0  0  0  0
    5.9132   -1.9589   -3.5079 H   0  0  0  0  0  0  0  0  0  0  0  0
    4.8123   -2.7320   -5.1172 H   0  0  0  0  0  0  0  0  0  0  0  0
    5.8082   -5.4713   -5.6808 H   0  0  0  0  0  0  0  0  0  0  0  0
    6.4056   -3.9789   -6.4405 H   0  0  0  0  0  0  0  0  0  0  0  0
    4.1314   -3.7387   -7.5871 H   0  0  0  0  0  0  0  0  0  0  0  0
    3.6520   -5.2869   -6.8515 H   0  0  0  0  0  0  0  0  0  0  0  0
    5.9653   -4.8424   -8.8300 H   0  0  0  0  0  0  0  0  0  0  0  0
    4.3841   -5.5653   -9.2158 H   0  0  0  0  0  0  0  0  0  0  0  0
    5.4066   -7.5422   -9.8471 H   0  0  0  0  0  0  0  0  0  0  0  0
    8.1906   -7.2145   -8.5698 H   0  0  0  0  0  0  0  0  0  0  0  0
    7.5196   -6.1849   -9.8634 H   0  0  0  0  0  0  0  0  0  0  0  0
    7.8654   -7.8958  -10.1893 H   0  0  0  0  0  0  0  0  0  0  0  0
    6.6877   -9.0541   -7.4933 H   0  0  0  0  0  0  0  0  0  0  0  0
    6.3730   -9.7378   -9.1147 H   0  0  0  0  0  0  0  0  0  0  0  0
    5.0115   -9.2369   -8.0671 H   0  0  0  0  0  0  0  0  0  0  0  0
    1.5036   -5.3229   -3.2685 H   0  0  0  0  0  0  0  0  0  0  0  0
    0.5901   -4.6762   -1.8537 H   0  0  0  0  0  0  0  0  0  0  0  0
    2.0221   -5.7211   -1.6344 H   0  0  0  0  0  0  0  0  0  0  0  0
  1  2  1  0
  1 23  1  0
  1 24  1  0
  1 25  1  0
  2  3  1  0
  3  4  2  0
  3 22  1  0
  4  5  1  0
  4 26  1  0
  5  6  2  0
  5 27  1  0
  6  7  1  0
  6 28  1  0
  7  8  1  0
  7 22  1  0
  8  9  1  0
  8 19  2  0
  9 10  2  0
  9 11  1  0
 11 12  1  0
 11 29  1  0
 12 13  1  0
 12 30  1  0
 12 31  1  0
 13 14  1  0
 13 32  1  0
 13 33  1  0
 14 15  1  0
 14 34  1  0
 14 35  1  0
 15 16  1  0
 16 17  1  0
 16 18  1  0
 16 36  1  6
 17 37  1  0
 17 38  1  0
 17 39  1  0
 18 40  1  0
 18 41  1  0
 18 42  1  0
 19 20  1  0
 19 21  1  0
 20 43  1  0
 20 44  1  0
 20 45  1  0
 21 22  2  0
M  END

