
     RDKit          3D

 55 57  0  0  0  0  0  0  0  0999 V2000
    1.7669   -1.4515    2.4383 C   0  0  0  0  0  0  0  0  0  0  0  0
    2.9785   -0.9317    1.6820 C   0  0  0  0  0  0  0  0  0  0  0  0
    3.9557   -1.6285    1.4795 O   0  0  0  0  0  0  0  0  0  0  0  0
    2.9359    0.3825    1.2261 N   0  0  0  0  0  0  0  0  0  0  0  0
    1.7900    1.2687    1.3987 C   0  0  0  0  0  0  0  0  0  0  0  0
    0.8219    1.2306    0.2012 C   0  0  0  0  0  0  0  0  0  0  0  0
    0.1708    0.2092    0.0114 O   0  0  0  0  0  0  0  0  0  0  0  0
    0.6943    2.3304   -0.6060 N   0  0  0  0  0  0  0  0  0  0  0  0
   -0.2648    2.2862   -1.7119 C   0  0  0  0  0  0  0  0  0  0  0  0
   -1.1494    3.5332   -1.7088 C   0  0  0  0  0  0  0  0  0  0  0  0
   -0.3355    4.7409   -1.6784 N   0  0  0  0  0  0  0  0  0  0  0  0
   -0.5800    5.8140   -2.4980 C   0  0  0  0  0  0  0  0  0  0  0  0
   -1.5614    5.6878   -3.4145 N   0  0  0  0  0  0  0  0  0  0  0  0
   -1.7774    6.7277   -4.2119 C   0  0  0  0  0  0  0  0  0  0  0  0
   -1.0429    7.9138   -4.1294 C   0  0  0  0  0  0  0  0  0  0  0  0
   -0.0539    7.9389   -3.1426 C   0  0  0  0  0  0  0  0  0  0  0  0
    0.1835    6.9136   -2.3319 N   0  0  0  0  0  0  0  0  0  0  0  0
    0.6432    4.7928   -0.6047 C   0  0  0  0  0  0  0  0  0  0  0  0
    1.5188    3.5361   -0.6162 C   0  0  0  0  0  0  0  0  0  0  0  0
    4.0335    0.8861    0.4389 C   0  0  0  0  0  0  0  0  0  0  0  0
    4.2282    0.4328   -0.8824 C   0  0  0  0  0  0  0  0  0  0  0  0
    3.3920   -0.6713   -1.4787 C   0  0  0  0  0  0  0  0  0  0  0  0
    5.2728    0.9961   -1.6310 C   0  0  0  0  0  0  0  0  0  0  0  0
    6.1274    1.9721   -1.1080 C   0  0  0  0  0  0  0  0  0  0  0  0
    7.2462    2.5629   -1.9319 C   0  0  0  0  0  0  0  0  0  0  0  0
    5.9280    2.3764    0.2188 C   0  0  0  0  0  0  0  0  0  0  0  0
    4.9008    1.8457    1.0077 C   0  0  0  0  0  0  0  0  0  0  0  0
    4.7565    2.2846    2.4459 C   0  0  0  0  0  0  0  0  0  0  0  0
    1.9555   -2.5065    2.6698 H   0  0  0  0  0  0  0  0  0  0  0  0
    0.8545   -1.3514    1.8329 H   0  0  0  0  0  0  0  0  0  0  0  0
    1.6155   -0.9059    3.3844 H   0  0  0  0  0  0  0  0  0  0  0  0
    2.1493    2.2775    1.6314 H   0  0  0  0  0  0  0  0  0  0  0  0
    1.1951    0.9427    2.2607 H   0  0  0  0  0  0  0  0  0  0  0  0
   -0.8639    1.3747   -1.6021 H   0  0  0  0  0  0  0  0  0  0  0  0
    0.2871    2.2259   -2.6684 H   0  0  0  0  0  0  0  0  0  0  0  0
   -1.8113    3.5077   -0.8206 H   0  0  0  0  0  0  0  0  0  0  0  0
   -1.7820    3.5630   -2.6031 H   0  0  0  0  0  0  0  0  0  0  0  0
   -2.5772    6.6136   -4.9545 H   0  0  0  0  0  0  0  0  0  0  0  0
   -1.2308    8.7624   -4.7878 H   0  0  0  0  0  0  0  0  0  0  0  0
    0.5736    8.8277   -2.9998 H   0  0  0  0  0  0  0  0  0  0  0  0
    0.1249    4.8634    0.3729 H   0  0  0  0  0  0  0  0  0  0  0  0
    1.2549    5.6932   -0.7330 H   0  0  0  0  0  0  0  0  0  0  0  0
    2.2023    3.5525    0.2388 H   0  0  0  0  0  0  0  0  0  0  0  0
    2.1423    3.5354   -1.5293 H   0  0  0  0  0  0  0  0  0  0  0  0
    2.3308   -0.5996   -1.2013 H   0  0  0  0  0  0  0  0  0  0  0  0
    3.7488   -1.6444   -1.1027 H   0  0  0  0  0  0  0  0  0  0  0  0
    3.4686   -0.6759   -2.5759 H   0  0  0  0  0  0  0  0  0  0  0  0
    5.4243    0.6495   -2.6577 H   0  0  0  0  0  0  0  0  0  0  0  0
    7.2716    2.1366   -2.9455 H   0  0  0  0  0  0  0  0  0  0  0  0
    8.2277    2.3765   -1.4644 H   0  0  0  0  0  0  0  0  0  0  0  0
    7.1407    3.6566   -2.0287 H   0  0  0  0  0  0  0  0  0  0  0  0
    6.6027    3.1162    0.6611 H   0  0  0  0  0  0  0  0  0  0  0  0
    5.6976    2.7149    2.8178 H   0  0  0  0  0  0  0  0  0  0  0  0
    4.4811    1.4425    3.0979 H   0  0  0  0  0  0  0  0  0  0  0  0
    3.9794    3.0599    2.5738 H   0  0  0  0  0  0  0  0  0  0  0  0
  1  2  1  0
  1 29  1  0
  1 30  1  0
  1 31  1  0
  2  3  2  0
  2  4  1  0
  4  5  1  0
  4 20  1  0
  5  6  1  0
  5 32  1  0
  5 33  1  0
  6  7  2  0
  6  8  1  0
  8  9  1  0
  8 19  1  0
  9 10  1  0
  9 34  1  0
  9 35  1  0
 10 11  1  0
 10 36  1  0
 10 37  1  0
 11 12  1  0
 11 18  1  0
 12 13  2  0
 12 17  1  0
 13 14  1  0
 14 15  2  0
 14 38  1  0
 15 16  1  0
 15 39  1  0
 16 17  2  0
 16 40  1  0
 18 19  1  0
 18 41  1  0
 18 42  1  0
 19 43  1  0
 19 44  1  0
 20 21  2  0
 20 27  1  0
 21 22  1  0
 21 23  1  0
 22 45  1  0
 22 46  1  0
 22 47  1  0
 23 24  2  0
 23 48  1  0
 24 25  1  0
 24 26  1  0
 25 49  1  0
 25 50  1  0
 25 51  1  0
 26 27  2  0
 26 52  1  0
 27 28  1  0
 28 53  1  0
 28 54  1  0
 28 55  1  0
M  END

