
     RDKit          3D

159174  0  0  0  0  0  0  0  0999 V2000
    4.9640    4.0710  -10.5058 C   0  0  0  0  0  0  0  0  0  0  0  0
    5.6550    4.8486   -9.5713 C   0  0  0  0  0  0  0  0  0  0  0  0
    6.1369    4.2719   -8.3945 C   0  0  0  0  0  0  0  0  0  0  0  0
    5.9422    2.9038   -8.1262 C   0  0  0  0  0  0  0  0  0  0  0  0
    6.4839    2.2715   -6.8835 C   0  0  0  0  0  0  0  0  0  0  0  0
    6.2807    2.8025   -5.6363 C   0  0  0  0  0  0  0  0  0  0  0  0
    7.0350    2.3342   -4.4315 C   0  0  0  0  0  0  0  0  0  0  0  0
    8.4394    2.2433   -4.4397 C   0  0  0  0  0  0  0  0  0  0  0  0
    9.1391    1.8348   -3.3024 C   0  0  0  0  0  0  0  0  0  0  0  0
    8.4500    1.5049   -2.1314 C   0  0  0  0  0  0  0  0  0  0  0  0
    7.0549    1.5999   -2.1040 C   0  0  0  0  0  0  0  0  0  0  0  0
    6.3568    2.0202   -3.2379 C   0  0  0  0  0  0  0  0  0  0  0  0
    5.2983    3.8952   -5.3745 C   0  0  0  0  0  0  0  0  0  0  0  0
    3.9828    3.8482   -5.8770 C   0  0  0  0  0  0  0  0  0  0  0  0
    3.0670    4.8597   -5.6090 C   0  0  0  0  0  0  0  0  0  0  0  0
    3.4173    5.9766   -4.8204 C   0  0  0  0  0  0  0  0  0  0  0  0
    2.4454    7.0386   -4.5479 C   0  0  0  0  0  0  0  0  0  0  0  0
    1.0844    7.0580   -4.8047 C   0  0  0  0  0  0  0  0  0  0  0  0
    0.4400    8.2555   -4.4142 C   0  0  0  0  0  0  0  0  0  0  0  0
    1.2951    9.1880   -3.8453 C   0  0  0  0  0  0  0  0  0  0  0  0
    1.0054   10.5174   -3.3251 C   0  0  0  0  0  0  0  0  0  0  0  0
    1.9780   11.3216   -2.7393 C   0  0  0  0  0  0  0  0  0  0  0  0
    1.7368   12.6207   -2.2297 C   0  0  0  0  0  0  0  0  0  0  0  0
    0.4884   13.2295   -2.2472 C   0  0  0  0  0  0  0  0  0  0  0  0
    0.2600   14.5759   -1.7185 C   0  0  0  0  0  0  0  0  0  0  0  0
   -0.8645   15.6550   -2.5153 S   0  0  0  0  0  0  0  0  0  0  0  0
   -0.4215   17.0015   -1.5034 C   0  0  0  0  0  0  0  0  0  0  0  0
   -1.0517   18.3174   -1.6612 C   0  0  0  0  0  0  0  0  0  0  0  0
   -0.9645   19.2918   -0.6449 C   0  0  0  0  0  0  0  0  0  0  0  0
   -1.5429   20.5480   -0.7972 C   0  0  0  0  0  0  0  0  0  0  0  0
   -2.2493   20.8941   -1.9656 C   0  0  0  0  0  0  0  0  0  0  0  0
   -2.9035   22.2265   -2.1255 C   0  0  0  0  0  0  0  0  0  0  0  0
   -2.2604   23.4056   -1.8537 C   0  0  0  0  0  0  0  0  0  0  0  0
   -2.9795   24.7148   -1.7744 C   0  0  0  0  0  0  0  0  0  0  0  0
   -4.1396   24.8669   -0.9919 C   0  0  0  0  0  0  0  0  0  0  0  0
   -4.7870   26.1007   -0.8998 C   0  0  0  0  0  0  0  0  0  0  0  0
   -4.2911   27.2106   -1.5906 C   0  0  0  0  0  0  0  0  0  0  0  0
   -3.1338   27.0783   -2.3646 C   0  0  0  0  0  0  0  0  0  0  0  0
   -2.4797   25.8475   -2.4460 C   0  0  0  0  0  0  0  0  0  0  0  0
   -0.7854   23.4848   -1.6180 C   0  0  0  0  0  0  0  0  0  0  0  0
    0.1313   22.8851   -2.5022 C   0  0  0  0  0  0  0  0  0  0  0  0
    1.5074   22.9903   -2.2905 C   0  0  0  0  0  0  0  0  0  0  0  0
    1.9994   23.6956   -1.1879 C   0  0  0  0  0  0  0  0  0  0  0  0
    1.1021   24.3064   -0.3060 C   0  0  0  0  0  0  0  0  0  0  0  0
   -0.2736   24.2112   -0.5252 C   0  0  0  0  0  0  0  0  0  0  0  0
   -4.3177   22.1748   -2.6127 C   0  0  0  0  0  0  0  0  0  0  0  0
   -4.7423   22.9478   -3.7095 C   0  0  0  0  0  0  0  0  0  0  0  0
   -6.0555   22.8690   -4.1778 C   0  0  0  0  0  0  0  0  0  0  0  0
   -6.9754   22.0182   -3.5575 C   0  0  0  0  0  0  0  0  0  0  0  0
   -6.5665   21.2368   -2.4721 C   0  0  0  0  0  0  0  0  0  0  0  0
   -5.2498   21.3063   -2.0126 C   0  0  0  0  0  0  0  0  0  0  0  0
   -2.3632   19.9106   -2.9672 C   0  0  0  0  0  0  0  0  0  0  0  0
   -1.7674   18.6606   -2.8264 C   0  0  0  0  0  0  0  0  0  0  0  0
    0.5254   16.6056   -0.5782 C   0  0  0  0  0  0  0  0  0  0  0  0
    0.9162   15.2383   -0.6757 C   0  0  0  0  0  0  0  0  0  0  0  0
    1.8693   14.6353    0.2903 C   0  0  0  0  0  0  0  0  0  0  0  0
    1.5637   13.4470    0.9803 C   0  0  0  0  0  0  0  0  0  0  0  0
    2.4453   12.9141    1.9176 C   0  0  0  0  0  0  0  0  0  0  0  0
    3.6820   13.5308    2.1932 C   0  0  0  0  0  0  0  0  0  0  0  0
    4.6151   12.9528    3.2075 C   0  0  0  0  0  0  0  0  0  0  0  0
    5.9515   12.7786    2.9645 C   0  0  0  0  0  0  0  0  0  0  0  0
    6.9318   12.4373    4.0415 C   0  0  0  0  0  0  0  0  0  0  0  0
    7.8708   11.4045    3.8529 C   0  0  0  0  0  0  0  0  0  0  0  0
    8.8027   11.0900    4.8439 C   0  0  0  0  0  0  0  0  0  0  0  0
    8.8320   11.8165    6.0385 C   0  0  0  0  0  0  0  0  0  0  0  0
    7.9209   12.8595    6.2315 C   0  0  0  0  0  0  0  0  0  0  0  0
    6.9807   13.1650    5.2455 C   0  0  0  0  0  0  0  0  0  0  0  0
    6.5444   12.9119    1.5969 C   0  0  0  0  0  0  0  0  0  0  0  0
    7.6984   13.6917    1.3892 C   0  0  0  0  0  0  0  0  0  0  0  0
    8.2689   13.8078    0.1200 C   0  0  0  0  0  0  0  0  0  0  0  0
    7.7121   13.1269   -0.9672 C   0  0  0  0  0  0  0  0  0  0  0  0
    6.5810   12.3283   -0.7718 C   0  0  0  0  0  0  0  0  0  0  0  0
    6.0025   12.2238    0.4950 C   0  0  0  0  0  0  0  0  0  0  0  0
    3.9744   12.5743    4.5057 C   0  0  0  0  0  0  0  0  0  0  0  0
    3.1114   13.4700    5.1661 C   0  0  0  0  0  0  0  0  0  0  0  0
    2.4929   13.1179    6.3674 C   0  0  0  0  0  0  0  0  0  0  0  0
    2.7056   11.8526    6.9241 C   0  0  0  0  0  0  0  0  0  0  0  0
    3.5425   10.9443    6.2685 C   0  0  0  0  0  0  0  0  0  0  0  0
    4.1712   11.3019    5.0742 C   0  0  0  0  0  0  0  0  0  0  0  0
    3.9760   14.7291    1.5185 C   0  0  0  0  0  0  0  0  0  0  0  0
    3.0868   15.2725    0.5910 C   0  0  0  0  0  0  0  0  0  0  0  0
   -0.5608   12.4477   -2.8534 C   0  0  0  0  0  0  0  0  0  0  0  0
   -1.8287   12.8372   -2.9927 N   0  0  0  0  0  0  0  0  0  0  0  0
   -2.6381   11.6221   -3.7332 S   0  0  0  0  0  0  0  0  0  0  0  0
   -1.4089   10.5505   -3.9035 N   0  0  0  0  0  0  0  0  0  0  0  0
   -0.3126   11.1087   -3.3860 C   0  0  0  0  0  0  0  0  0  0  0  0
    2.9291    8.5474   -3.8094 S   0  0  0  0  0  0  0  0  0  0  0  0
    4.7295    6.0157   -4.3052 C   0  0  0  0  0  0  0  0  0  0  0  0
    5.6413    4.9974   -4.5674 C   0  0  0  0  0  0  0  0  0  0  0  0
    7.2710    1.0198   -7.1088 C   0  0  0  0  0  0  0  0  0  0  0  0
    7.0214   -0.1479   -6.3632 C   0  0  0  0  0  0  0  0  0  0  0  0
    7.7407   -1.3204   -6.6028 C   0  0  0  0  0  0  0  0  0  0  0  0
    8.7293   -1.3518   -7.5912 C   0  0  0  0  0  0  0  0  0  0  0  0
    8.9830   -0.2029   -8.3472 C   0  0  0  0  0  0  0  0  0  0  0  0
    8.2543    0.9654   -8.1160 C   0  0  0  0  0  0  0  0  0  0  0  0
    5.2652    2.1291   -9.0881 C   0  0  0  0  0  0  0  0  0  0  0  0
    4.7715    2.7079  -10.2589 C   0  0  0  0  0  0  0  0  0  0  0  0
    4.5842    4.5234  -11.4255 H   0  0  0  0  0  0  0  0  0  0  0  0
    5.8230    5.9121   -9.7603 H   0  0  0  0  0  0  0  0  0  0  0  0
    6.6786    4.8859   -7.6723 H   0  0  0  0  0  0  0  0  0  0  0  0
    8.9859    2.5016   -5.3489 H   0  0  0  0  0  0  0  0  0  0  0  0
   10.2304    1.7770   -3.3308 H   0  0  0  0  0  0  0  0  0  0  0  0
    8.9976    1.1825   -1.2421 H   0  0  0  0  0  0  0  0  0  0  0  0
    6.5063    1.3486   -1.1924 H   0  0  0  0  0  0  0  0  0  0  0  0
    5.2675    2.1002   -3.2040 H   0  0  0  0  0  0  0  0  0  0  0  0
    3.6737    2.9987   -6.4884 H   0  0  0  0  0  0  0  0  0  0  0  0
    2.0620    4.7841   -6.0279 H   0  0  0  0  0  0  0  0  0  0  0  0
    0.5526    6.2193   -5.2548 H   0  0  0  0  0  0  0  0  0  0  0  0
   -0.6236    8.4485   -4.5352 H   0  0  0  0  0  0  0  0  0  0  0  0
    3.0010   10.9442   -2.6691 H   0  0  0  0  0  0  0  0  0  0  0  0
    2.5847   13.1657   -1.8146 H   0  0  0  0  0  0  0  0  0  0  0  0
   -0.4521   19.0565    0.2900 H   0  0  0  0  0  0  0  0  0  0  0  0
   -1.4605   21.2749    0.0129 H   0  0  0  0  0  0  0  0  0  0  0  0
   -4.5325   24.0070   -0.4462 H   0  0  0  0  0  0  0  0  0  0  0  0
   -5.6835   26.1957   -0.2815 H   0  0  0  0  0  0  0  0  0  0  0  0
   -4.7996   28.1756   -1.5205 H   0  0  0  0  0  0  0  0  0  0  0  0
   -2.7347   27.9405   -2.9055 H   0  0  0  0  0  0  0  0  0  0  0  0
   -1.5702   25.7562   -3.0448 H   0  0  0  0  0  0  0  0  0  0  0  0
   -0.2427   22.3361   -3.3685 H   0  0  0  0  0  0  0  0  0  0  0  0
    2.1997   22.5205   -2.9941 H   0  0  0  0  0  0  0  0  0  0  0  0
    3.0767   23.7756   -1.0211 H   0  0  0  0  0  0  0  0  0  0  0  0
    1.4757   24.8647    0.5566 H   0  0  0  0  0  0  0  0  0  0  0  0
   -0.9667   24.7007    0.1632 H   0  0  0  0  0  0  0  0  0  0  0  0
   -4.0305   23.6134   -4.2017 H   0  0  0  0  0  0  0  0  0  0  0  0
   -6.3609   23.4748   -5.0351 H   0  0  0  0  0  0  0  0  0  0  0  0
   -8.0039   21.9587   -3.9226 H   0  0  0  0  0  0  0  0  0  0  0  0
   -7.2762   20.5648   -1.9822 H   0  0  0  0  0  0  0  0  0  0  0  0
   -4.9368   20.6841   -1.1706 H   0  0  0  0  0  0  0  0  0  0  0  0
   -2.9167   20.1375   -3.8812 H   0  0  0  0  0  0  0  0  0  0  0  0
   -1.8519   17.9385   -3.6424 H   0  0  0  0  0  0  0  0  0  0  0  0
    0.9323   17.2719    0.1827 H   0  0  0  0  0  0  0  0  0  0  0  0
    0.6139   12.9442    0.7861 H   0  0  0  0  0  0  0  0  0  0  0  0
    2.1733   11.9981    2.4475 H   0  0  0  0  0  0  0  0  0  0  0  0
    7.8623   10.8379    2.9187 H   0  0  0  0  0  0  0  0  0  0  0  0
    9.5129   10.2752    4.6802 H   0  0  0  0  0  0  0  0  0  0  0  0
    9.5659   11.5758    6.8119 H   0  0  0  0  0  0  0  0  0  0  0  0
    7.9434   13.4427    7.1559 H   0  0  0  0  0  0  0  0  0  0  0  0
    6.2762   13.9837    5.4043 H   0  0  0  0  0  0  0  0  0  0  0  0
    8.1473   14.2180    2.2351 H   0  0  0  0  0  0  0  0  0  0  0  0
    9.1567   14.4303   -0.0198 H   0  0  0  0  0  0  0  0  0  0  0  0
    8.1627   13.2108   -1.9595 H   0  0  0  0  0  0  0  0  0  0  0  0
    6.1492   11.7769   -1.6115 H   0  0  0  0  0  0  0  0  0  0  0  0
    5.1216   11.5950    0.6396 H   0  0  0  0  0  0  0  0  0  0  0  0
    2.9305   14.4566    4.7327 H   0  0  0  0  0  0  0  0  0  0  0  0
    1.8368   13.8340    6.8693 H   0  0  0  0  0  0  0  0  0  0  0  0
    2.2154   11.5734    7.8603 H   0  0  0  0  0  0  0  0  0  0  0  0
    3.7055    9.9481    6.6880 H   0  0  0  0  0  0  0  0  0  0  0  0
    4.8207   10.5854    4.5676 H   0  0  0  0  0  0  0  0  0  0  0  0
    4.9163   15.2435    1.7252 H   0  0  0  0  0  0  0  0  0  0  0  0
    3.3473   16.2024    0.0791 H   0  0  0  0  0  0  0  0  0  0  0  0
    5.0402    6.8532   -3.6754 H   0  0  0  0  0  0  0  0  0  0  0  0
    6.6454    5.0585   -4.1418 H   0  0  0  0  0  0  0  0  0  0  0  0
    6.2494   -0.1345   -5.5915 H   0  0  0  0  0  0  0  0  0  0  0  0
    7.5249   -2.2164   -6.0149 H   0  0  0  0  0  0  0  0  0  0  0  0
    9.2941   -2.2691   -7.7766 H   0  0  0  0  0  0  0  0  0  0  0  0
    9.7506   -0.2173   -9.1255 H   0  0  0  0  0  0  0  0  0  0  0  0
    8.4517    1.8550   -8.7189 H   0  0  0  0  0  0  0  0  0  0  0  0
    5.1198    1.0611   -8.9088 H   0  0  0  0  0  0  0  0  0  0  0  0
    4.2371    2.0898  -10.9852 H   0  0  0  0  0  0  0  0  0  0  0  0
  1  2  2  0
  1 97  1  0
  1 98  1  0
  2  3  1  0
  2 99  1  0
  3  4  2  0
  3100  1  0
  4  5  1  0
  4 96  1  0
  5  6  2  0
  5 90  1  0
  6  7  1  0
  6 13  1  0
  7  8  2  0
  7 12  1  0
  8  9  1  0
  8101  1  0
  9 10  2  0
  9102  1  0
 10 11  1  0
 10103  1  0
 11 12  2  0
 11104  1  0
 12105  1  0
 13 14  2  0
 13 89  1  0
 14 15  1  0
 14106  1  0
 15 16  2  0
 15107  1  0
 16 17  1  0
 16 88  1  0
 17 18  2  0
 17 87  1  0
 18 19  1  0
 18108  1  0
 19 20  2  0
 19109  1  0
 20 21  1  0
 20 87  1  0
 21 22  2  0
 21 86  1  0
 22 23  1  0
 22110  1  0
 23 24  2  0
 23111  1  0
 24 25  1  0
 24 82  1  0
 25 26  1  0
 25 55  2  0
 26 27  1  0
 27 28  1  0
 27 54  2  0
 28 29  2  0
 28 53  1  0
 29 30  1  0
 29112  1  0
 30 31  2  0
 30113  1  0
 31 32  1  0
 31 52  1  0
 32 33  2  0
 32 46  1  0
 33 34  1  0
 33 40  1  0
 34 35  2  0
 34 39  1  0
 35 36  1  0
 35114  1  0
 36 37  2  0
 36115  1  0
 37 38  1  0
 37116  1  0
 38 39  2  0
 38117  1  0
 39118  1  0
 40 41  2  0
 40 45  1  0
 41 42  1  0
 41119  1  0
 42 43  2  0
 42120  1  0
 43 44  1  0
 43121  1  0
 44 45  2  0
 44122  1  0
 45123  1  0
 46 47  2  0
 46 51  1  0
 47 48  1  0
 47124  1  0
 48 49  2  0
 48125  1  0
 49 50  1  0
 49126  1  0
 50 51  2  0
 50127  1  0
 51128  1  0
 52 53  2  0
 52129  1  0
 53130  1  0
 54 55  1  0
 54131  1  0
 55 56  1  0
 56 57  2  0
 56 81  1  0
 57 58  1  0
 57132  1  0
 58 59  2  0
 58133  1  0
 59 60  1  0
 59 80  1  0
 60 61  2  0
 60 74  1  0
 61 62  1  0
 61 68  1  0
 62 63  2  0
 62 67  1  0
 63 64  1  0
 63134  1  0
 64 65  2  0
 64135  1  0
 65 66  1  0
 65136  1  0
 66 67  2  0
 66137  1  0
 67138  1  0
 68 69  2  0
 68 73  1  0
 69 70  1  0
 69139  1  0
 70 71  2  0
 70140  1  0
 71 72  1  0
 71141  1  0
 72 73  2  0
 72142  1  0
 73143  1  0
 74 75  2  0
 74 79  1  0
 75 76  1  0
 75144  1  0
 76 77  2  0
 76145  1  0
 77 78  1  0
 77146  1  0
 78 79  2  0
 78147  1  0
 79148  1  0
 80 81  2  0
 80149  1  0
 81150  1  0
 82 83  2  0
 82 86  1  0
 83 84  1  0
 84 85  1  0
 85 86  2  0
 88 89  2  0
 88151  1  0
 89152  1  0
 90 91  2  0
 90 95  1  0
 91 92  1  0
 91153  1  0
 92 93  2  0
 92154  1  0
 93 94  1  0
 93155  1  0
 94 95  2  0
 94156  1  0
 95157  1  0
 96 97  2  0
 96158  1  0
 97159  1  0
M  END

