
     RDKit          3D

 73 81  0  0  0  0  0  0  0  0999 V2000
    0.4730   -0.0897    0.6824 C   0  0  0  0  0  0  0  0  0  0  0  0
    2.3474    0.1911    0.7414 Si  0  0  2  0  0  4  0  0  0  0  0  0
    3.1502    0.6537    2.3955 C   0  0  0  0  0  0  0  0  0  0  0  0
    2.9910    1.4355   -0.5761 C   0  0  0  0  0  0  0  0  0  0  0  0
    2.9232    2.8699   -0.4617 C   0  0  0  0  0  0  0  0  0  0  0  0
    3.7566    3.8012   -1.1289 C   0  0  0  0  0  0  0  0  0  0  0  0
    3.6744    5.1839   -0.9432 C   0  0  0  0  0  0  0  0  0  0  0  0
    2.7596    5.8159   -0.0811 C   0  0  0  0  0  0  0  0  0  0  0  0
    2.7042    7.2547    0.0650 C   0  0  0  0  0  0  0  0  0  0  0  0
    1.8863    8.0301    0.8834 C   0  0  0  0  0  0  0  0  0  0  0  0
    2.1176    9.4229    0.7563 C   0  0  0  0  0  0  0  0  0  0  0  0
    3.1065    9.7216   -0.1539 C   0  0  0  0  0  0  0  0  0  0  0  0
    3.7700    8.3014   -0.8719 S   0  0  0  0  0  0  0  0  0  0  0  0
    1.8978    4.9240    0.6550 C   0  0  0  0  0  0  0  0  0  0  0  0
    1.9904    3.4806    0.4674 C   0  0  0  0  0  0  0  0  0  0  0  0
    1.1406    2.8014    1.2332 N   0  0  0  0  0  0  0  0  0  0  0  0
    0.2837    3.8945    2.1272 S   0  0  0  0  0  0  0  0  0  0  0  0
    0.9754    5.2775    1.5553 N   0  0  0  0  0  0  0  0  0  0  0  0
    3.6835    0.7090   -1.5673 C   0  0  0  0  0  0  0  0  0  0  0  0
    4.2011    1.3173   -2.8290 C   0  0  0  0  0  0  0  0  0  0  0  0
    5.5734    1.3432   -3.1384 C   0  0  0  0  0  0  0  0  0  0  0  0
    6.0274    1.9361   -4.3188 C   0  0  0  0  0  0  0  0  0  0  0  0
    5.1187    2.4974   -5.2218 C   0  0  0  0  0  0  0  0  0  0  0  0
    3.7510    2.4664   -4.9325 C   0  0  0  0  0  0  0  0  0  0  0  0
    3.2975    1.8875   -3.7454 C   0  0  0  0  0  0  0  0  0  0  0  0
    3.8398   -0.7221   -1.3404 C   0  0  0  0  0  0  0  0  0  0  0  0
    4.6825   -1.5232   -2.2786 C   0  0  0  0  0  0  0  0  0  0  0  0
    4.3028   -1.7391   -3.6154 C   0  0  0  0  0  0  0  0  0  0  0  0
    5.1025   -2.5016   -4.4702 C   0  0  0  0  0  0  0  0  0  0  0  0
    6.3041   -3.0495   -4.0098 C   0  0  0  0  0  0  0  0  0  0  0  0
    6.6988   -2.8322   -2.6858 C   0  0  0  0  0  0  0  0  0  0  0  0
    5.8938   -2.0798   -1.8275 C   0  0  0  0  0  0  0  0  0  0  0  0
    3.1926   -1.2553   -0.2067 C   0  0  0  0  0  0  0  0  0  0  0  0
    3.0289   -2.6504    0.1196 C   0  0  0  0  0  0  0  0  0  0  0  0
    3.2930   -3.7523   -0.7328 C   0  0  0  0  0  0  0  0  0  0  0  0
    3.0767   -5.0811   -0.3620 C   0  0  0  0  0  0  0  0  0  0  0  0
    2.5777   -5.4822    0.8926 C   0  0  0  0  0  0  0  0  0  0  0  0
    2.3882   -6.8750    1.2357 C   0  0  0  0  0  0  0  0  0  0  0  0
    1.8917   -7.4370    2.4095 C   0  0  0  0  0  0  0  0  0  0  0  0
    1.8532   -8.8538    2.3853 C   0  0  0  0  0  0  0  0  0  0  0  0
    2.3168   -9.3831    1.2018 C   0  0  0  0  0  0  0  0  0  0  0  0
    2.8084   -8.1543    0.0966 S   0  0  0  0  0  0  0  0  0  0  0  0
    2.2569   -4.4075    1.7988 C   0  0  0  0  0  0  0  0  0  0  0  0
    2.4772   -3.0222    1.4070 C   0  0  0  0  0  0  0  0  0  0  0  0
    2.1148   -2.1497    2.3449 N   0  0  0  0  0  0  0  0  0  0  0  0
    1.5339   -3.0110    3.6355 S   0  0  0  0  0  0  0  0  0  0  0  0
    1.7389   -4.5326    3.0255 N   0  0  0  0  0  0  0  0  0  0  0  0
    0.0253    0.1247    1.6634 H   0  0  0  0  0  0  0  0  0  0  0  0
    0.2416   -1.1311    0.4136 H   0  0  0  0  0  0  0  0  0  0  0  0
    0.0058    0.5797   -0.0541 H   0  0  0  0  0  0  0  0  0  0  0  0
    3.5482    1.6791    2.3663 H   0  0  0  0  0  0  0  0  0  0  0  0
    3.9736   -0.0375    2.6281 H   0  0  0  0  0  0  0  0  0  0  0  0
    2.4163    0.5854    3.2111 H   0  0  0  0  0  0  0  0  0  0  0  0
    4.5289    3.4373   -1.8009 H   0  0  0  0  0  0  0  0  0  0  0  0
    4.3778    5.8044   -1.5039 H   0  0  0  0  0  0  0  0  0  0  0  0
    1.1519    7.5774    1.5461 H   0  0  0  0  0  0  0  0  0  0  0  0
    1.5727   10.1829    1.3187 H   0  0  0  0  0  0  0  0  0  0  0  0
    3.4815   10.7028   -0.4428 H   0  0  0  0  0  0  0  0  0  0  0  0
    6.2916    0.9061   -2.4421 H   0  0  0  0  0  0  0  0  0  0  0  0
    7.0985    1.9560   -4.5359 H   0  0  0  0  0  0  0  0  0  0  0  0
    5.4753    2.9555   -6.1478 H   0  0  0  0  0  0  0  0  0  0  0  0
    3.0321    2.8989   -5.6333 H   0  0  0  0  0  0  0  0  0  0  0  0
    2.2287    1.8742   -3.5183 H   0  0  0  0  0  0  0  0  0  0  0  0
    3.3669   -1.3144   -3.9842 H   0  0  0  0  0  0  0  0  0  0  0  0
    4.7856   -2.6664   -5.5033 H   0  0  0  0  0  0  0  0  0  0  0  0
    6.9310   -3.6424   -4.6806 H   0  0  0  0  0  0  0  0  0  0  0  0
    7.6377   -3.2538   -2.3174 H   0  0  0  0  0  0  0  0  0  0  0  0
    6.2010   -1.9208   -0.7909 H   0  0  0  0  0  0  0  0  0  0  0  0
    3.6572   -3.5729   -1.7398 H   0  0  0  0  0  0  0  0  0  0  0  0
    3.3078   -5.8504   -1.1027 H   0  0  0  0  0  0  0  0  0  0  0  0
    1.5721   -6.8171    3.2446 H   0  0  0  0  0  0  0  0  0  0  0  0
    1.4946   -9.4659    3.2145 H   0  0  0  0  0  0  0  0  0  0  0  0
    2.3962  -10.4321    0.9189 H   0  0  0  0  0  0  0  0  0  0  0  0
  2  1  1  1
  1 48  1  0
  1 49  1  0
  1 50  1  0
  2  3  1  0
  2  4  1  0
  2 33  1  0
  3 51  1  0
  3 52  1  0
  3 53  1  0
  4  5  1  0
  4 19  2  0
  5  6  2  0
  5 15  1  0
  6  7  1  0
  6 54  1  0
  7  8  2  0
  7 55  1  0
  8  9  1  0
  8 14  1  0
  9 10  2  0
  9 13  1  0
 10 11  1  0
 10 56  1  0
 11 12  2  0
 11 57  1  0
 12 13  1  0
 12 58  1  0
 14 15  1  0
 14 18  2  0
 15 16  2  0
 16 17  1  0
 17 18  1  0
 19 20  1  0
 19 26  1  0
 20 21  2  0
 20 25  1  0
 21 22  1  0
 21 59  1  0
 22 23  2  0
 22 60  1  0
 23 24  1  0
 23 61  1  0
 24 25  2  0
 24 62  1  0
 25 63  1  0
 26 27  1  0
 26 33  2  0
 27 28  2  0
 27 32  1  0
 28 29  1  0
 28 64  1  0
 29 30  2  0
 29 65  1  0
 30 31  1  0
 30 66  1  0
 31 32  2  0
 31 67  1  0
 32 68  1  0
 33 34  1  0
 34 35  2  0
 34 44  1  0
 35 36  1  0
 35 69  1  0
 36 37  2  0
 36 70  1  0
 37 38  1  0
 37 43  1  0
 38 39  2  0
 38 42  1  0
 39 40  1  0
 39 71  1  0
 40 41  2  0
 40 72  1  0
 41 42  1  0
 41 73  1  0
 43 44  1  0
 43 47  2  0
 44 45  2  0
 45 46  1  0
 46 47  1  0
M  END

