
     RDKit          3D

172183  0  0  0  0  0  0  0  0999 V2000
    2.6761   -1.7066   -3.5071 C   0  0  0  0  0  0  0  0  0  0  0  0
    3.8928   -0.7810   -3.4546 C   0  0  0  0  0  0  0  0  0  0  0  0
    5.2082   -1.5252   -3.1950 C   0  0  0  0  0  0  0  0  0  0  0  0
    6.4710   -0.6506   -3.2227 C   0  0  0  0  0  0  0  0  0  0  0  0
    6.5427    0.4698   -2.1663 C   0  0  1  0  0  0  0  0  0  0  0  0
    6.4061   -0.0302   -0.7102 C   0  0  0  0  0  0  0  0  0  0  0  0
    7.4439   -1.0551   -0.2398 C   0  0  0  0  0  0  0  0  0  0  0  0
    7.8253    1.3172   -2.3044 C   0  0  0  0  0  0  0  0  0  0  0  0
    7.9813    1.9852   -3.6082 N   0  0  0  0  0  0  0  0  0  0  0  0
    8.9115    1.4545   -4.5179 C   0  0  0  0  0  0  0  0  0  0  0  0
    9.5630    0.4621   -4.2465 O   0  0  0  0  0  0  0  0  0  0  0  0
    9.0568    2.1609   -5.8211 C   0  0  0  0  0  0  0  0  0  0  0  0
    9.9495    1.6682   -6.7604 C   0  0  0  0  0  0  0  0  0  0  0  0
   10.1039    2.3190   -8.0022 C   0  0  0  0  0  0  0  0  0  0  0  0
    9.3687    3.4532   -8.2968 C   0  0  0  0  0  0  0  0  0  0  0  0
    8.4461    3.9878   -7.3605 C   0  0  0  0  0  0  0  0  0  0  0  0
    7.6577    5.1673   -7.6210 C   0  0  0  0  0  0  0  0  0  0  0  0
    7.7708    5.8639   -8.8564 C   0  0  0  0  0  0  0  0  0  0  0  0
    7.8542    6.4758   -9.9105 C   0  0  0  0  0  0  0  0  0  0  0  0
    7.9432    7.1957  -11.1360 C   0  0  0  0  0  0  0  0  0  0  0  0
    7.0991    8.2998  -11.3928 C   0  0  0  0  0  0  0  0  0  0  0  0
    7.1787    8.9992  -12.5910 C   0  0  0  0  0  0  0  0  0  0  0  0
    8.1154    8.6322  -13.5770 C   0  0  0  0  0  0  0  0  0  0  0  0
    8.2025    9.3497  -14.7958 N   0  0  0  0  0  0  0  0  0  0  0  0
    8.0855   10.7623  -14.7994 C   0  0  0  0  0  0  0  0  0  0  0  0
    8.7063   11.5388  -13.8017 C   0  0  0  0  0  0  0  0  0  0  0  0
    8.5831   12.9231  -13.8017 C   0  0  0  0  0  0  0  0  0  0  0  0
    7.8451   13.5890  -14.8060 C   0  0  0  0  0  0  0  0  0  0  0  0
    7.7195   15.0076  -14.8106 C   0  0  0  0  0  0  0  0  0  0  0  0
    7.6033   16.2237  -14.8241 C   0  0  0  0  0  0  0  0  0  0  0  0
    7.4510   17.6378  -14.8614 C   0  0  0  0  0  0  0  0  0  0  0  0
    6.6985   18.2308  -15.8811 C   0  0  0  0  0  0  0  0  0  0  0  0
    6.5276   19.6229  -15.9468 C   0  0  0  0  0  0  0  0  0  0  0  0
    7.1025   20.4516  -14.9938 C   0  0  0  0  0  0  0  0  0  0  0  0
    7.8747   19.8915  -13.9435 C   0  0  0  0  0  0  0  0  0  0  0  0
    8.4674   20.7407  -12.9713 C   0  0  0  0  0  0  0  0  0  0  0  0
    9.2284   20.2018  -11.9455 C   0  0  0  0  0  0  0  0  0  0  0  0
    9.4161   18.8064  -11.8591 C   0  0  0  0  0  0  0  0  0  0  0  0
    8.8462   17.9618  -12.7947 C   0  0  0  0  0  0  0  0  0  0  0  0
    8.0626   18.4765  -13.8600 C   0  0  0  0  0  0  0  0  0  0  0  0
    8.2857   22.2176  -13.0413 C   0  0  0  0  0  0  0  0  0  0  0  0
    8.8065   22.9676  -12.2344 O   0  0  0  0  0  0  0  0  0  0  0  0
    7.4847   22.7111  -14.0833 N   0  0  0  0  0  0  0  0  0  0  0  0
    7.2866   24.1682  -14.1878 C   0  0  0  0  0  0  0  0  0  0  0  0
    5.8928   24.6583  -13.7417 C   0  0  1  0  0  0  0  0  0  0  0  0
    5.5820   24.3773  -12.2553 C   0  0  0  0  0  0  0  0  0  0  0  0
    6.4130   25.1461  -11.2231 C   0  0  0  0  0  0  0  0  0  0  0  0
    5.7171   26.1483  -14.1039 C   0  0  0  0  0  0  0  0  0  0  0  0
    5.5124   26.4405  -15.5954 C   0  0  0  0  0  0  0  0  0  0  0  0
    5.3190   27.9292  -15.9026 C   0  0  0  0  0  0  0  0  0  0  0  0
    5.1025   28.2241  -17.3876 C   0  0  0  0  0  0  0  0  0  0  0  0
    6.9069   21.9214  -15.0902 C   0  0  0  0  0  0  0  0  0  0  0  0
    6.2736   22.4354  -15.9957 O   0  0  0  0  0  0  0  0  0  0  0  0
    7.2322   12.8037  -15.8084 C   0  0  0  0  0  0  0  0  0  0  0  0
    7.3451   11.4186  -15.8019 C   0  0  0  0  0  0  0  0  0  0  0  0
    8.4021    8.6543  -16.0152 C   0  0  0  0  0  0  0  0  0  0  0  0
    7.7141    7.4542  -16.2792 C   0  0  0  0  0  0  0  0  0  0  0  0
    7.9161    6.7691  -17.4715 C   0  0  0  0  0  0  0  0  0  0  0  0
    8.8054    7.2616  -18.4529 C   0  0  0  0  0  0  0  0  0  0  0  0
    9.0139    6.5630  -19.6764 C   0  0  0  0  0  0  0  0  0  0  0  0
    9.2045    5.9708  -20.7278 C   0  0  0  0  0  0  0  0  0  0  0  0
    9.4506    5.2969  -21.9564 C   0  0  0  0  0  0  0  0  0  0  0  0
   10.3959    5.8063  -22.8535 C   0  0  0  0  0  0  0  0  0  0  0  0
   10.6686    5.1618  -24.0706 C   0  0  0  0  0  0  0  0  0  0  0  0
   10.0039    3.9938  -24.4167 C   0  0  0  0  0  0  0  0  0  0  0  0
    9.0338    3.4460  -23.5381 C   0  0  0  0  0  0  0  0  0  0  0  0
    8.3479    2.2548  -23.8962 C   0  0  0  0  0  0  0  0  0  0  0  0
    7.3942    1.7165  -23.0462 C   0  0  0  0  0  0  0  0  0  0  0  0
    7.1017    2.3464  -21.8184 C   0  0  0  0  0  0  0  0  0  0  0  0
    7.7599    3.5059  -21.4497 C   0  0  0  0  0  0  0  0  0  0  0  0
    8.7404    4.0880  -22.2946 C   0  0  0  0  0  0  0  0  0  0  0  0
    8.6395    1.5697  -25.1864 C   0  0  0  0  0  0  0  0  0  0  0  0
    8.0437    0.5634  -25.5284 O   0  0  0  0  0  0  0  0  0  0  0  0
    9.6382    2.1353  -25.9949 N   0  0  0  0  0  0  0  0  0  0  0  0
    9.9643    1.4772  -27.2730 C   0  0  0  0  0  0  0  0  0  0  0  0
   11.2937    0.6929  -27.2626 C   0  0  1  0  0  0  0  0  0  0  0  0
   11.3062   -0.4914  -26.2716 C   0  0  0  0  0  0  0  0  0  0  0  0
   10.3716   -1.6622  -26.5912 C   0  0  0  0  0  0  0  0  0  0  0  0
   11.6631    0.2603  -28.6973 C   0  0  0  0  0  0  0  0  0  0  0  0
   12.1714    1.3848  -29.6077 C   0  0  0  0  0  0  0  0  0  0  0  0
   12.5472    0.9071  -31.0143 C   0  0  0  0  0  0  0  0  0  0  0  0
   13.0702    2.0231  -31.9197 C   0  0  0  0  0  0  0  0  0  0  0  0
   10.3171    3.3307  -25.7089 C   0  0  0  0  0  0  0  0  0  0  0  0
   11.1279    3.7879  -26.4954 O   0  0  0  0  0  0  0  0  0  0  0  0
    9.4865    8.4702  -18.1836 C   0  0  0  0  0  0  0  0  0  0  0  0
    9.2932    9.1497  -16.9869 C   0  0  0  0  0  0  0  0  0  0  0  0
    8.9647    7.5367  -13.3256 C   0  0  0  0  0  0  0  0  0  0  0  0
    8.8756    6.8295  -12.1326 C   0  0  0  0  0  0  0  0  0  0  0  0
    6.7719    5.6262   -6.6400 C   0  0  0  0  0  0  0  0  0  0  0  0
    6.6385    4.9633   -5.4095 C   0  0  0  0  0  0  0  0  0  0  0  0
    7.3844    3.8260   -5.1344 C   0  0  0  0  0  0  0  0  0  0  0  0
    8.2935    3.3256   -6.1024 C   0  0  0  0  0  0  0  0  0  0  0  0
    7.2247    3.1472   -3.8220 C   0  0  0  0  0  0  0  0  0  0  0  0
    6.4724    3.5668   -2.9597 O   0  0  0  0  0  0  0  0  0  0  0  0
    1.7466   -1.1458   -3.6959 H   0  0  0  0  0  0  0  0  0  0  0  0
    2.5471   -2.2526   -2.5573 H   0  0  0  0  0  0  0  0  0  0  0  0
    2.7787   -2.4602   -4.3063 H   0  0  0  0  0  0  0  0  0  0  0  0
    3.7318   -0.0157   -2.6752 H   0  0  0  0  0  0  0  0  0  0  0  0
    3.9748   -0.2244   -4.4065 H   0  0  0  0  0  0  0  0  0  0  0  0
    5.3222   -2.3144   -3.9601 H   0  0  0  0  0  0  0  0  0  0  0  0
    5.1366   -2.0620   -2.2317 H   0  0  0  0  0  0  0  0  0  0  0  0
    6.5457   -0.1903   -4.2235 H   0  0  0  0  0  0  0  0  0  0  0  0
    7.3606   -1.2964   -3.1334 H   0  0  0  0  0  0  0  0  0  0  0  0
    5.7001    1.1604   -2.3336 H   0  0  0  0  0  0  0  0  0  0  0  0
    5.3974   -0.4565   -0.5789 H   0  0  0  0  0  0  0  0  0  0  0  0
    6.4371    0.8489   -0.0422 H   0  0  0  0  0  0  0  0  0  0  0  0
    7.4098   -1.9818   -0.8345 H   0  0  0  0  0  0  0  0  0  0  0  0
    7.2631   -1.3348    0.8105 H   0  0  0  0  0  0  0  0  0  0  0  0
    8.4729   -0.6655   -0.2985 H   0  0  0  0  0  0  0  0  0  0  0  0
    8.7194    0.6974   -2.1715 H   0  0  0  0  0  0  0  0  0  0  0  0
    7.8126    2.1055   -1.5392 H   0  0  0  0  0  0  0  0  0  0  0  0
   10.5216    0.7720   -6.5134 H   0  0  0  0  0  0  0  0  0  0  0  0
   10.8097    1.9218   -8.7355 H   0  0  0  0  0  0  0  0  0  0  0  0
    9.4895    3.9547   -9.2588 H   0  0  0  0  0  0  0  0  0  0  0  0
    6.3639    8.5948  -10.6415 H   0  0  0  0  0  0  0  0  0  0  0  0
    6.5063    9.8392  -12.7733 H   0  0  0  0  0  0  0  0  0  0  0  0
    9.2929   11.0472  -13.0236 H   0  0  0  0  0  0  0  0  0  0  0  0
    9.0746   13.5091  -13.0225 H   0  0  0  0  0  0  0  0  0  0  0  0
    6.2384   17.5921  -16.6370 H   0  0  0  0  0  0  0  0  0  0  0  0
    5.9406   20.0788  -16.7463 H   0  0  0  0  0  0  0  0  0  0  0  0
    9.6724   20.8810  -11.2154 H   0  0  0  0  0  0  0  0  0  0  0  0
   10.0170   18.3923  -11.0461 H   0  0  0  0  0  0  0  0  0  0  0  0
    8.9935   16.8824  -12.7259 H   0  0  0  0  0  0  0  0  0  0  0  0
    7.4401   24.4312  -15.2420 H   0  0  0  0  0  0  0  0  0  0  0  0
    8.0756   24.6359  -13.5872 H   0  0  0  0  0  0  0  0  0  0  0  0
    5.1552   24.0922  -14.3353 H   0  0  0  0  0  0  0  0  0  0  0  0
    5.6852   23.2940  -12.0675 H   0  0  0  0  0  0  0  0  0  0  0  0
    4.5115   24.5988  -12.0957 H   0  0  0  0  0  0  0  0  0  0  0  0
    7.4825   24.8992  -11.2993 H   0  0  0  0  0  0  0  0  0  0  0  0
    6.0908   24.8860  -10.2017 H   0  0  0  0  0  0  0  0  0  0  0  0
    6.2980   26.2367  -11.3308 H   0  0  0  0  0  0  0  0  0  0  0  0
    6.5838   26.7272  -13.7348 H   0  0  0  0  0  0  0  0  0  0  0  0
    4.8440   26.5385  -13.5506 H   0  0  0  0  0  0  0  0  0  0  0  0
    4.6351   25.8748  -15.9590 H   0  0  0  0  0  0  0  0  0  0  0  0
    6.3689   26.0635  -16.1820 H   0  0  0  0  0  0  0  0  0  0  0  0
    6.1980   28.4923  -15.5389 H   0  0  0  0  0  0  0  0  0  0  0  0
    4.4596   28.3114  -15.3215 H   0  0  0  0  0  0  0  0  0  0  0  0
    5.9613   27.8874  -17.9924 H   0  0  0  0  0  0  0  0  0  0  0  0
    4.9679   29.3020  -17.5720 H   0  0  0  0  0  0  0  0  0  0  0  0
    4.2081   27.7060  -17.7727 H   0  0  0  0  0  0  0  0  0  0  0  0
    6.6493   13.2959  -16.5894 H   0  0  0  0  0  0  0  0  0  0  0  0
    6.8509   10.8314  -16.5778 H   0  0  0  0  0  0  0  0  0  0  0  0
    7.0126    7.0621  -15.5407 H   0  0  0  0  0  0  0  0  0  0  0  0
    7.3705    5.8426  -17.6612 H   0  0  0  0  0  0  0  0  0  0  0  0
   10.9295    6.7223  -22.5939 H   0  0  0  0  0  0  0  0  0  0  0  0
   11.4083    5.5647  -24.7650 H   0  0  0  0  0  0  0  0  0  0  0  0
    6.8832    0.8016  -23.3516 H   0  0  0  0  0  0  0  0  0  0  0  0
    6.3490    1.9133  -21.1557 H   0  0  0  0  0  0  0  0  0  0  0  0
    7.5311    3.9919  -20.4995 H   0  0  0  0  0  0  0  0  0  0  0  0
   10.0184    2.2689  -28.0307 H   0  0  0  0  0  0  0  0  0  0  0  0
    9.1227    0.8159  -27.5100 H   0  0  0  0  0  0  0  0  0  0  0  0
   12.0730    1.3985  -26.9282 H   0  0  0  0  0  0  0  0  0  0  0  0
   11.0779   -0.1128  -25.2597 H   0  0  0  0  0  0  0  0  0  0  0  0
   12.3454   -0.8623  -26.2156 H   0  0  0  0  0  0  0  0  0  0  0  0
    9.3161   -1.3519  -26.5794 H   0  0  0  0  0  0  0  0  0  0  0  0
   10.4849   -2.4593  -25.8386 H   0  0  0  0  0  0  0  0  0  0  0  0
   10.5928   -2.1102  -27.5735 H   0  0  0  0  0  0  0  0  0  0  0  0
   10.7963   -0.2325  -29.1751 H   0  0  0  0  0  0  0  0  0  0  0  0
   12.4464   -0.5164  -28.6339 H   0  0  0  0  0  0  0  0  0  0  0  0
   13.0500    1.8624  -29.1367 H   0  0  0  0  0  0  0  0  0  0  0  0
   11.4134    2.1837  -29.6923 H   0  0  0  0  0  0  0  0  0  0  0  0
   11.6662    0.4329  -31.4846 H   0  0  0  0  0  0  0  0  0  0  0  0
   13.3081    0.1089  -30.9357 H   0  0  0  0  0  0  0  0  0  0  0  0
   12.3177    2.8189  -32.0509 H   0  0  0  0  0  0  0  0  0  0  0  0
   13.3317    1.6444  -32.9209 H   0  0  0  0  0  0  0  0  0  0  0  0
   13.9730    2.4935  -31.4952 H   0  0  0  0  0  0  0  0  0  0  0  0
   10.1854    8.8647  -18.9239 H   0  0  0  0  0  0  0  0  0  0  0  0
    9.8411   10.0737  -16.7941 H   0  0  0  0  0  0  0  0  0  0  0  0
    9.7032    7.2448  -14.0741 H   0  0  0  0  0  0  0  0  0  0  0  0
    9.5457    5.9864  -11.9534 H   0  0  0  0  0  0  0  0  0  0  0  0
    6.1771    6.5188   -6.8419 H   0  0  0  0  0  0  0  0  0  0  0  0
    5.9474    5.3284   -4.6474 H   0  0  0  0  0  0  0  0  0  0  0  0
  1  2  1  0
  1 95  1  0
  1 96  1  0
  1 97  1  0
  2  3  1  0
  2 98  1  0
  2 99  1  0
  3  4  1  0
  3100  1  0
  3101  1  0
  4  5  1  0
  4102  1  0
  4103  1  0
  5  6  1  0
  5  8  1  0
  5104  1  6
  6  7  1  0
  6105  1  0
  6106  1  0
  7107  1  0
  7108  1  0
  7109  1  0
  8  9  1  0
  8110  1  0
  8111  1  0
  9 10  1  0
  9 93  1  0
 10 11  2  0
 10 12  1  0
 12 13  1  0
 12 92  2  0
 13 14  2  0
 13112  1  0
 14 15  1  0
 14113  1  0
 15 16  2  0
 15114  1  0
 16 17  1  0
 16 92  1  0
 17 18  1  0
 17 89  2  0
 18 19  3  0
 19 20  1  0
 20 21  2  0
 20 88  1  0
 21 22  1  0
 21115  1  0
 22 23  2  0
 22116  1  0
 23 24  1  0
 23 87  1  0
 24 25  1  0
 24 56  1  0
 25 26  2  0
 25 55  1  0
 26 27  1  0
 26117  1  0
 27 28  2  0
 27118  1  0
 28 29  1  0
 28 54  1  0
 29 30  3  0
 30 31  1  0
 31 32  2  0
 31 40  1  0
 32 33  1  0
 32119  1  0
 33 34  2  0
 33120  1  0
 34 35  1  0
 34 52  1  0
 35 36  1  0
 35 40  2  0
 36 37  2  0
 36 41  1  0
 37 38  1  0
 37121  1  0
 38 39  2  0
 38122  1  0
 39 40  1  0
 39123  1  0
 41 42  2  0
 41 43  1  0
 43 44  1  0
 43 52  1  0
 44 45  1  0
 44124  1  0
 44125  1  0
 45 46  1  0
 45 48  1  0
 45126  1  6
 46 47  1  0
 46127  1  0
 46128  1  0
 47129  1  0
 47130  1  0
 47131  1  0
 48 49  1  0
 48132  1  0
 48133  1  0
 49 50  1  0
 49134  1  0
 49135  1  0
 50 51  1  0
 50136  1  0
 50137  1  0
 51138  1  0
 51139  1  0
 51140  1  0
 52 53  2  0
 54 55  2  0
 54141  1  0
 55142  1  0
 56 57  2  0
 56 86  1  0
 57 58  1  0
 57143  1  0
 58 59  2  0
 58144  1  0
 59 60  1  0
 59 85  1  0
 60 61  3  0
 61 62  1  0
 62 63  2  0
 62 71  1  0
 63 64  1  0
 63145  1  0
 64 65  2  0
 64146  1  0
 65 66  1  0
 65 83  1  0
 66 67  1  0
 66 71  2  0
 67 68  2  0
 67 72  1  0
 68 69  1  0
 68147  1  0
 69 70  2  0
 69148  1  0
 70 71  1  0
 70149  1  0
 72 73  2  0
 72 74  1  0
 74 75  1  0
 74 83  1  0
 75 76  1  0
 75150  1  0
 75151  1  0
 76 77  1  0
 76 79  1  0
 76152  1  1
 77 78  1  0
 77153  1  0
 77154  1  0
 78155  1  0
 78156  1  0
 78157  1  0
 79 80  1  0
 79158  1  0
 79159  1  0
 80 81  1  0
 80160  1  0
 80161  1  0
 81 82  1  0
 81162  1  0
 81163  1  0
 82164  1  0
 82165  1  0
 82166  1  0
 83 84  2  0
 85 86  2  0
 85167  1  0
 86168  1  0
 87 88  2  0
 87169  1  0
 88170  1  0
 89 90  1  0
 89171  1  0
 90 91  2  0
 90172  1  0
 91 92  1  0
 91 93  1  0
 93 94  2  0
M  END

