
     RDKit          3D

 21 22  0  0  0  0  0  0  0  0999 V2000
    1.1701   -0.0512    0.5319 N   0  0  0  0  0  0  0  0  0  0  0  0
    2.3297   -0.0419    0.3423 C   0  0  0  0  0  0  0  0  0  0  0  0
    3.7167   -0.0309    0.1152 C   0  0  0  0  0  0  0  0  0  0  0  0
    4.5674    0.9865    0.6950 C   0  0  0  0  0  0  0  0  0  0  0  0
    5.9238    0.9961    0.4716 C   0  0  0  0  0  0  0  0  0  0  0  0
    6.5172   -0.0088   -0.3444 C   0  0  0  0  0  0  0  0  0  0  0  0
    7.9609    0.0034   -0.5819 N   0  0  0  0  0  0  0  0  0  0  0  0
    8.6047    0.6373   -1.5941 C   0  0  0  0  0  0  0  0  0  0  0  0
   10.0195    0.4176   -1.4913 C   0  0  0  0  0  0  0  0  0  0  0  0
   10.2091   -0.3723   -0.3802 C   0  0  0  0  0  0  0  0  0  0  0  0
    8.9056   -0.6161    0.1694 C   0  0  0  0  0  0  0  0  0  0  0  0
    5.7098   -1.0247   -0.9304 C   0  0  0  0  0  0  0  0  0  0  0  0
    4.3531   -1.0366   -0.7087 C   0  0  0  0  0  0  0  0  0  0  0  0
    4.1166    1.7584    1.3212 H   0  0  0  0  0  0  0  0  0  0  0  0
    6.5412    1.7773    0.9226 H   0  0  0  0  0  0  0  0  0  0  0  0
    8.0436    1.2068   -2.3314 H   0  0  0  0  0  0  0  0  0  0  0  0
   10.7688    0.8119   -2.1734 H   0  0  0  0  0  0  0  0  0  0  0  0
   11.1440   -0.7516    0.0253 H   0  0  0  0  0  0  0  0  0  0  0  0
    8.6200   -1.1928    1.0461 H   0  0  0  0  0  0  0  0  0  0  0  0
    6.1627   -1.7974   -1.5573 H   0  0  0  0  0  0  0  0  0  0  0  0
    3.7378   -1.8169   -1.1600 H   0  0  0  0  0  0  0  0  0  0  0  0
  1  2  3  0
  2  3  1  0
  3  4  2  0
  3 13  1  0
  4  5  1  0
  4 14  1  0
  5  6  2  0
  5 15  1  0
  6  7  1  0
  6 12  1  0
  7  8  1  0
  7 11  1  0
  8  9  2  0
  8 16  1  0
  9 10  1  0
  9 17  1  0
 10 11  2  0
 10 18  1  0
 11 19  1  0
 12 13  2  0
 12 20  1  0
 13 21  1  0
M  END

