
     RDKit          3D

 45 46  0  0  0  0  0  0  0  0999 V2000
    3.7234   -1.4245   -1.7556 C   0  0  0  0  0  0  0  0  0  0  0  0
    3.1087   -0.5986   -0.6209 C   0  0  1  0  0  0  0  0  0  0  0  0
    1.5995   -0.3548   -0.8098 C   0  0  0  0  0  0  0  0  0  0  0  0
    3.3413   -1.1987    0.6966 N   0  0  0  0  0  0  0  0  0  0  0  0
    3.9342   -0.3932    1.7523 C   0  0  0  0  0  0  0  0  0  0  0  0
    3.5065   -0.8086    3.1621 C   0  0  0  0  0  0  0  0  0  0  0  0
    3.6974   -2.3205    3.3658 C   0  0  2  0  0  0  0  0  0  0  0  0
    5.0968   -2.7069    3.1964 N   0  0  0  0  0  0  0  0  0  0  0  0
    5.9600   -2.1747    4.2502 C   0  0  0  0  0  0  0  0  0  0  0  0
    5.2591   -4.1955    3.1351 C   0  0  0  0  0  0  0  0  0  0  0  0
    4.5468   -4.8826    3.9084 O   0  0  0  0  0  0  0  0  0  0  0  0
    6.2009   -4.6930    2.1870 C   0  0  0  0  0  0  0  0  0  0  0  0
    6.9734   -3.8744    1.2908 C   0  0  0  0  0  0  0  0  0  0  0  0
    7.8521   -4.4526    0.3837 C   0  0  0  0  0  0  0  0  0  0  0  0
    8.0087   -5.8389    0.3381 C   0  0  0  0  0  0  0  0  0  0  0  0
    8.8597   -6.4079   -0.5695 F   0  0  0  0  0  0  0  0  0  0  0  0
    7.2945   -6.6929    1.2102 C   0  0  0  0  0  0  0  0  0  0  0  0
    7.5497   -8.0676    1.1665 N   0  0  0  0  0  0  0  0  0  0  0  0
    6.4038   -6.1177    2.1097 C   0  0  0  0  0  0  0  0  0  0  0  0
    2.7971   -3.0074    2.3289 C   0  0  0  0  0  0  0  0  0  0  0  0
    3.1980   -2.6362    0.8994 C   0  0  0  0  0  0  0  0  0  0  0  0
    3.6547   -0.8415   -2.6851 H   0  0  0  0  0  0  0  0  0  0  0  0
    3.1940   -2.3741   -1.9161 H   0  0  0  0  0  0  0  0  0  0  0  0
    4.7835   -1.6444   -1.5653 H   0  0  0  0  0  0  0  0  0  0  0  0
    3.6113    0.3796   -0.5889 H   0  0  0  0  0  0  0  0  0  0  0  0
    1.0425   -1.3031   -0.8384 H   0  0  0  0  0  0  0  0  0  0  0  0
    1.4422    0.1644   -1.7652 H   0  0  0  0  0  0  0  0  0  0  0  0
    1.1865    0.2720   -0.0055 H   0  0  0  0  0  0  0  0  0  0  0  0
    3.7243    0.6642    1.5345 H   0  0  0  0  0  0  0  0  0  0  0  0
    5.0233   -0.5568    1.6538 H   0  0  0  0  0  0  0  0  0  0  0  0
    2.4496   -0.5414    3.3273 H   0  0  0  0  0  0  0  0  0  0  0  0
    4.0913   -0.2090    3.8725 H   0  0  0  0  0  0  0  0  0  0  0  0
    3.3142   -2.5998    4.3680 H   0  0  0  0  0  0  0  0  0  0  0  0
    5.6576   -2.5208    5.2608 H   0  0  0  0  0  0  0  0  0  0  0  0
    5.9825   -1.0712    4.2598 H   0  0  0  0  0  0  0  0  0  0  0  0
    6.9884   -2.5175    4.0715 H   0  0  0  0  0  0  0  0  0  0  0  0
    6.8862   -2.7895    1.3423 H   0  0  0  0  0  0  0  0  0  0  0  0
    8.4456   -3.8418   -0.3018 H   0  0  0  0  0  0  0  0  0  0  0  0
    7.9183   -8.3878    0.2773 H   0  0  0  0  0  0  0  0  0  0  0  0
    6.7861   -8.6459    1.4990 H   0  0  0  0  0  0  0  0  0  0  0  0
    5.8390   -6.7464    2.8007 H   0  0  0  0  0  0  0  0  0  0  0  0
    1.7492   -2.7145    2.5087 H   0  0  0  0  0  0  0  0  0  0  0  0
    2.8585   -4.0949    2.4378 H   0  0  0  0  0  0  0  0  0  0  0  0
    2.4894   -3.0206    0.1532 H   0  0  0  0  0  0  0  0  0  0  0  0
    4.1883   -3.0629    0.6721 H   0  0  0  0  0  0  0  0  0  0  0  0
  1  2  1  0
  1 22  1  0
  1 23  1  0
  1 24  1  0
  2  3  1  0
  2  4  1  0
  2 25  1  1
  3 26  1  0
  3 27  1  0
  3 28  1  0
  4  5  1  0
  4 21  1  0
  5  6  1  0
  5 29  1  0
  5 30  1  0
  6  7  1  0
  6 31  1  0
  6 32  1  0
  7  8  1  0
  7 20  1  0
  7 33  1  1
  8  9  1  0
  8 10  1  0
  9 34  1  0
  9 35  1  0
  9 36  1  0
 10 11  2  0
 10 12  1  0
 12 13  2  0
 12 19  1  0
 13 14  1  0
 13 37  1  0
 14 15  2  0
 14 38  1  0
 15 16  1  0
 15 17  1  0
 17 18  1  0
 17 19  2  0
 18 39  1  0
 18 40  1  0
 19 41  1  0
 20 21  1  0
 20 42  1  0
 20 43  1  0
 21 44  1  0
 21 45  1  0
M  END

