
     RDKit          3D

 54 57  0  0  0  0  0  0  0  0999 V2000
    2.6938   -2.7777   -2.1234 O   0  0  0  0  0  0  0  0  0  0  0  0
    3.4615   -3.3290   -1.3186 C   0  0  0  0  0  0  0  0  0  0  0  0
    4.5132   -4.2223   -1.7781 C   0  0  0  0  0  0  0  0  0  0  0  0
    4.6781   -4.5108   -3.1936 C   0  0  0  0  0  0  0  0  0  0  0  0
    5.6786   -5.3363   -3.6348 C   0  0  0  0  0  0  0  0  0  0  0  0
    6.6039   -5.9479   -2.7330 C   0  0  0  0  0  0  0  0  0  0  0  0
    6.4176   -5.6429   -1.3646 C   0  0  0  0  0  0  0  0  0  0  0  0
    5.4430   -4.8512   -1.0376 N   0  0  0  0  0  0  0  0  0  0  0  0
    3.3204   -3.0783    0.0395 N   0  0  0  0  0  0  0  0  0  0  0  0
    3.9846   -3.7392    1.1608 C   0  0  0  0  0  0  0  0  0  0  0  0
    3.1313   -3.3310    2.3747 C   0  0  0  0  0  0  0  0  0  0  0  0
    2.5571   -1.9702    1.9622 C   0  0  0  0  0  0  0  0  0  0  0  0
    2.2703   -2.1570    0.4556 C   0  0  2  0  0  0  0  0  0  0  0  0
    0.8930   -2.7138    0.1981 C   0  0  0  0  0  0  0  0  0  0  0  0
    0.4610   -3.9311    0.3488 N   0  0  0  0  0  0  0  0  0  0  0  0
   -0.8707   -3.8192    0.0136 C   0  0  0  0  0  0  0  0  0  0  0  0
   -1.8205   -4.9729    0.0116 C   0  0  0  0  0  0  0  0  0  0  0  0
   -1.9084   -5.6542    1.3751 C   0  0  0  0  0  0  0  0  0  0  0  0
   -2.7889   -6.7484    1.2792 O   0  0  0  0  0  0  0  0  0  0  0  0
   -2.9318   -7.4708    2.4836 C   0  0  0  0  0  0  0  0  0  0  0  0
   -3.9075   -8.6413    2.3483 C   0  0  1  0  0  0  0  0  0  0  0  0
   -5.3583   -8.2207    2.0215 C   0  0  0  0  0  0  0  0  0  0  0  0
   -5.5881   -7.9948    0.5236 C   0  0  0  0  0  0  0  0  0  0  0  0
   -5.1897   -9.1202   -0.2377 O   0  0  0  0  0  0  0  0  0  0  0  0
   -3.8103   -9.4051   -0.0963 C   0  0  0  0  0  0  0  0  0  0  0  0
   -3.4531   -9.7355    1.3562 C   0  0  0  0  0  0  0  0  0  0  0  0
   -1.2394   -2.6037   -0.3056 N   0  0  0  0  0  0  0  0  0  0  0  0
   -0.0651   -1.8655   -0.1843 O   0  0  0  0  0  0  0  0  0  0  0  0
    3.9462   -4.0132   -3.8372 H   0  0  0  0  0  0  0  0  0  0  0  0
    5.7723   -5.5326   -4.7069 H   0  0  0  0  0  0  0  0  0  0  0  0
    7.4109   -6.6088   -3.0430 H   0  0  0  0  0  0  0  0  0  0  0  0
    7.0570   -6.0433   -0.5691 H   0  0  0  0  0  0  0  0  0  0  0  0
    5.0283   -3.3907    1.2746 H   0  0  0  0  0  0  0  0  0  0  0  0
    4.0053   -4.8339    1.0351 H   0  0  0  0  0  0  0  0  0  0  0  0
    3.7172   -3.2934    3.3049 H   0  0  0  0  0  0  0  0  0  0  0  0
    2.3141   -4.0553    2.5087 H   0  0  0  0  0  0  0  0  0  0  0  0
    3.3091   -1.1736    2.0830 H   0  0  0  0  0  0  0  0  0  0  0  0
    1.6627   -1.6761    2.5303 H   0  0  0  0  0  0  0  0  0  0  0  0
    2.3346   -1.2114   -0.1026 H   0  0  0  0  0  0  0  0  0  0  0  0
   -1.4813   -5.7151   -0.7301 H   0  0  0  0  0  0  0  0  0  0  0  0
   -2.8128   -4.6169   -0.2995 H   0  0  0  0  0  0  0  0  0  0  0  0
   -2.2664   -4.9327    2.1392 H   0  0  0  0  0  0  0  0  0  0  0  0
   -0.8999   -5.9873    1.6926 H   0  0  0  0  0  0  0  0  0  0  0  0
   -3.2885   -6.7923    3.2881 H   0  0  0  0  0  0  0  0  0  0  0  0
   -1.9419   -7.8567    2.8091 H   0  0  0  0  0  0  0  0  0  0  0  0
   -3.9118   -9.0905    3.3579 H   0  0  0  0  0  0  0  0  0  0  0  0
   -5.6367   -7.3130    2.5847 H   0  0  0  0  0  0  0  0  0  0  0  0
   -6.0372   -9.0252    2.3533 H   0  0  0  0  0  0  0  0  0  0  0  0
   -5.0434   -7.0923    0.1888 H   0  0  0  0  0  0  0  0  0  0  0  0
   -6.6598   -7.8443    0.3185 H   0  0  0  0  0  0  0  0  0  0  0  0
   -3.2028   -8.5516   -0.4511 H   0  0  0  0  0  0  0  0  0  0  0  0
   -3.6025  -10.2682   -0.7485 H   0  0  0  0  0  0  0  0  0  0  0  0
   -2.3675   -9.9150    1.4450 H   0  0  0  0  0  0  0  0  0  0  0  0
   -3.9576  -10.6798    1.6244 H   0  0  0  0  0  0  0  0  0  0  0  0
  1  2  2  0
  2  3  1  0
  2  9  1  0
  3  4  2  0
  3  8  1  0
  4  5  1  0
  4 29  1  0
  5  6  2  0
  5 30  1  0
  6  7  1  0
  6 31  1  0
  7  8  2  0
  7 32  1  0
  9 10  1  0
  9 13  1  0
 10 11  1  0
 10 33  1  0
 10 34  1  0
 11 12  1  0
 11 35  1  0
 11 36  1  0
 12 13  1  0
 12 37  1  0
 12 38  1  0
 13 14  1  0
 13 39  1  6
 14 15  2  0
 14 28  1  0
 15 16  1  0
 16 17  1  0
 16 27  2  0
 17 18  1  0
 17 40  1  0
 17 41  1  0
 18 19  1  0
 18 42  1  0
 18 43  1  0
 19 20  1  0
 20 21  1  0
 20 44  1  0
 20 45  1  0
 21 22  1  0
 21 26  1  0
 21 46  1  1
 22 23  1  0
 22 47  1  0
 22 48  1  0
 23 24  1  0
 23 49  1  0
 23 50  1  0
 24 25  1  0
 25 26  1  0
 25 51  1  0
 25 52  1  0
 26 53  1  0
 26 54  1  0
 27 28  1  0
M  END

