
     RDKit          3D

 80 85  0  0  0  0  0  0  0  0999 V2000
    2.1330    0.3119    5.9138 C   0  0  0  0  0  0  0  0  0  0  0  0
    3.5784    0.3749    5.4179 C   0  0  0  0  0  0  0  0  0  0  0  0
    4.0026   -0.8728    4.6376 C   0  0  0  0  0  0  0  0  0  0  0  0
    5.4389   -0.8028    4.1437 C   0  0  0  0  0  0  0  0  0  0  0  0
    5.7320   -2.0092    3.4544 O   0  0  0  0  0  0  0  0  0  0  0  0
    6.9540   -2.1937    2.9058 C   0  0  0  0  0  0  0  0  0  0  0  0
    8.0063   -1.2627    2.9505 C   0  0  0  0  0  0  0  0  0  0  0  0
    9.2260   -1.5643    2.3474 C   0  0  0  0  0  0  0  0  0  0  0  0
    9.4767   -2.7858    1.6808 C   0  0  0  0  0  0  0  0  0  0  0  0
   10.7754   -3.1033    1.0688 C   0  0  0  0  0  0  0  0  0  0  0  0
   11.3109   -4.4190    1.0361 C   0  0  0  0  0  0  0  0  0  0  0  0
   12.5460   -4.7104    0.4866 C   0  0  0  0  0  0  0  0  0  0  0  0
   13.3716   -3.7071   -0.1000 C   0  0  0  0  0  0  0  0  0  0  0  0
   14.6718   -4.0001   -0.6789 C   0  0  0  0  0  0  0  0  0  0  0  0
   15.4880   -2.9633   -1.2310 C   0  0  0  0  0  0  0  0  0  0  0  0
   16.7149   -3.2520   -1.7685 C   0  0  0  0  0  0  0  0  0  0  0  0
   17.4583   -2.2611   -2.2755 F   0  0  0  0  0  0  0  0  0  0  0  0
   17.2637   -4.5698   -1.8208 C   0  0  0  0  0  0  0  0  0  0  0  0
   18.5132   -4.8240   -2.3683 C   0  0  0  0  0  0  0  0  0  0  0  0
   19.6303   -5.0467   -2.8558 C   0  0  0  0  0  0  0  0  0  0  0  0
   20.8880   -5.3080   -3.3978 C   0  0  0  0  0  0  0  0  0  0  0  0
   21.6920   -4.2444   -3.9436 C   0  0  0  0  0  0  0  0  0  0  0  0
   22.9272   -4.4988   -4.4749 C   0  0  0  0  0  0  0  0  0  0  0  0
   23.4696   -5.8283   -4.5123 C   0  0  0  0  0  0  0  0  0  0  0  0
   24.7333   -6.1077   -5.0534 C   0  0  0  0  0  0  0  0  0  0  0  0
   25.2740   -7.4081   -5.0788 C   0  0  0  0  0  0  0  0  0  0  0  0
   26.6041   -7.6769   -5.6488 C   0  0  0  0  0  0  0  0  0  0  0  0
   27.3715   -8.7935   -5.2466 C   0  0  0  0  0  0  0  0  0  0  0  0
   28.6313   -9.0423   -5.7864 C   0  0  0  0  0  0  0  0  0  0  0  0
   29.1931   -8.1970   -6.7573 C   0  0  0  0  0  0  0  0  0  0  0  0
   30.5577   -8.4572   -7.3410 C   0  0  0  0  0  0  0  0  0  0  0  0
   28.4327   -7.0850   -7.1650 C   0  0  0  0  0  0  0  0  0  0  0  0
   27.1768   -6.8284   -6.6271 C   0  0  0  0  0  0  0  0  0  0  0  0
   24.4783   -8.4611   -4.5287 C   0  0  0  0  0  0  0  0  0  0  0  0
   23.2333   -8.2235   -3.9981 C   0  0  0  0  0  0  0  0  0  0  0  0
   22.6767   -6.9030   -3.9637 C   0  0  0  0  0  0  0  0  0  0  0  0
   21.4144   -6.6297   -3.4247 C   0  0  0  0  0  0  0  0  0  0  0  0
   16.4334   -5.6150   -1.2643 C   0  0  0  0  0  0  0  0  0  0  0  0
   16.9753   -6.8479   -1.3295 O   0  0  0  0  0  0  0  0  0  0  0  0
   16.2655   -7.9532   -0.8138 C   0  0  0  0  0  0  0  0  0  0  0  0
   15.1923   -5.3296   -0.7200 C   0  0  0  0  0  0  0  0  0  0  0  0
   12.8379   -2.3875   -0.0815 C   0  0  0  0  0  0  0  0  0  0  0  0
   11.6064   -2.1198    0.4791 C   0  0  0  0  0  0  0  0  0  0  0  0
   11.1790   -0.8402    0.4314 F   0  0  0  0  0  0  0  0  0  0  0  0
    8.3832   -3.6859    1.6602 C   0  0  0  0  0  0  0  0  0  0  0  0
    8.5077   -4.8645    1.0229 F   0  0  0  0  0  0  0  0  0  0  0  0
    7.1588   -3.4179    2.2462 C   0  0  0  0  0  0  0  0  0  0  0  0
    1.8581    1.2216    6.4706 H   0  0  0  0  0  0  0  0  0  0  0  0
    1.9770   -0.5497    6.5841 H   0  0  0  0  0  0  0  0  0  0  0  0
    1.4260    0.2081    5.0740 H   0  0  0  0  0  0  0  0  0  0  0  0
    4.2567    0.5167    6.2788 H   0  0  0  0  0  0  0  0  0  0  0  0
    3.7096    1.2687    4.7809 H   0  0  0  0  0  0  0  0  0  0  0  0
    3.3388   -1.0215    3.7683 H   0  0  0  0  0  0  0  0  0  0  0  0
    3.8927   -1.7714    5.2691 H   0  0  0  0  0  0  0  0  0  0  0  0
    6.1371   -0.6740    4.9929 H   0  0  0  0  0  0  0  0  0  0  0  0
    5.5772    0.0628    3.4682 H   0  0  0  0  0  0  0  0  0  0  0  0
    7.8895   -0.3050    3.4567 H   0  0  0  0  0  0  0  0  0  0  0  0
   10.0272   -0.8289    2.4047 H   0  0  0  0  0  0  0  0  0  0  0  0
   10.7318   -5.2287    1.4782 H   0  0  0  0  0  0  0  0  0  0  0  0
   12.8842   -5.7459    0.5239 H   0  0  0  0  0  0  0  0  0  0  0  0
   15.1706   -1.9223   -1.2396 H   0  0  0  0  0  0  0  0  0  0  0  0
   21.2925   -3.2286   -3.9234 H   0  0  0  0  0  0  0  0  0  0  0  0
   23.5247   -3.6799   -4.8848 H   0  0  0  0  0  0  0  0  0  0  0  0
   25.3212   -5.2710   -5.4367 H   0  0  0  0  0  0  0  0  0  0  0  0
   26.9899   -9.4644   -4.4747 H   0  0  0  0  0  0  0  0  0  0  0  0
   29.1977   -9.9113   -5.4396 H   0  0  0  0  0  0  0  0  0  0  0  0
   30.9797   -9.4069   -6.9806 H   0  0  0  0  0  0  0  0  0  0  0  0
   31.2660   -7.6532   -7.0757 H   0  0  0  0  0  0  0  0  0  0  0  0
   30.5219   -8.4981   -8.4426 H   0  0  0  0  0  0  0  0  0  0  0  0
   28.8330   -6.4120   -7.9292 H   0  0  0  0  0  0  0  0  0  0  0  0
   26.6117   -5.9706   -6.9966 H   0  0  0  0  0  0  0  0  0  0  0  0
   24.8532   -9.4856   -4.5591 H   0  0  0  0  0  0  0  0  0  0  0  0
   22.6411   -9.0518   -3.6001 H   0  0  0  0  0  0  0  0  0  0  0  0
   20.8140   -7.4432   -3.0113 H   0  0  0  0  0  0  0  0  0  0  0  0
   16.9015   -8.8335   -0.9754 H   0  0  0  0  0  0  0  0  0  0  0  0
   15.3047   -8.1005   -1.3380 H   0  0  0  0  0  0  0  0  0  0  0  0
   16.0698   -7.8420    0.2673 H   0  0  0  0  0  0  0  0  0  0  0  0
   14.5980   -6.1438   -0.3159 H   0  0  0  0  0  0  0  0  0  0  0  0
   13.3689   -1.5421   -0.5169 H   0  0  0  0  0  0  0  0  0  0  0  0
    6.3533   -4.1504    2.1856 H   0  0  0  0  0  0  0  0  0  0  0  0
  1  2  1  0
  1 48  1  0
  1 49  1  0
  1 50  1  0
  2  3  1  0
  2 51  1  0
  2 52  1  0
  3  4  1  0
  3 53  1  0
  3 54  1  0
  4  5  1  0
  4 55  1  0
  4 56  1  0
  5  6  1  0
  6  7  2  0
  6 47  1  0
  7  8  1  0
  7 57  1  0
  8  9  2  0
  8 58  1  0
  9 10  1  0
  9 45  1  0
 10 11  2  0
 10 43  1  0
 11 12  1  0
 11 59  1  0
 12 13  2  0
 12 60  1  0
 13 14  1  0
 13 42  1  0
 14 15  2  0
 14 41  1  0
 15 16  1  0
 15 61  1  0
 16 17  1  0
 16 18  2  0
 18 19  1  0
 18 38  1  0
 19 20  3  0
 20 21  1  0
 21 22  2  0
 21 37  1  0
 22 23  1  0
 22 62  1  0
 23 24  2  0
 23 63  1  0
 24 25  1  0
 24 36  1  0
 25 26  2  0
 25 64  1  0
 26 27  1  0
 26 34  1  0
 27 28  2  0
 27 33  1  0
 28 29  1  0
 28 65  1  0
 29 30  2  0
 29 66  1  0
 30 31  1  0
 30 32  1  0
 31 67  1  0
 31 68  1  0
 31 69  1  0
 32 33  2  0
 32 70  1  0
 33 71  1  0
 34 35  2  0
 34 72  1  0
 35 36  1  0
 35 73  1  0
 36 37  2  0
 37 74  1  0
 38 39  1  0
 38 41  2  0
 39 40  1  0
 40 75  1  0
 40 76  1  0
 40 77  1  0
 41 78  1  0
 42 43  2  0
 42 79  1  0
 43 44  1  0
 45 46  1  0
 45 47  2  0
 47 80  1  0
M  END

