
     RDKit          3D

 78 85  0  0  0  0  0  0  0  0999 V2000
    4.0081    0.8300    1.6409 O   0  0  0  0  0  0  0  0  0  0  0  0
    2.8242    0.1115    1.1405 S   0  0  1  0  0  0  0  0  0  0  0  0
    1.5994   -0.0217    1.9477 O   0  0  0  0  0  0  0  0  0  0  0  0
    2.3435    0.9159   -0.4060 C   0  0  0  0  0  0  0  0  0  0  0  0
    3.2916    1.6637   -1.1112 C   0  0  0  0  0  0  0  0  0  0  0  0
    2.9132    2.2903   -2.3013 C   0  0  0  0  0  0  0  0  0  0  0  0
    1.6000    2.1742   -2.7703 C   0  0  0  0  0  0  0  0  0  0  0  0
    0.6563    1.4377   -2.0450 C   0  0  0  0  0  0  0  0  0  0  0  0
    1.0230    0.8072   -0.8538 C   0  0  0  0  0  0  0  0  0  0  0  0
    3.3456   -1.5348    0.6825 C   0  0  0  0  0  0  0  0  0  0  0  0
    2.4252   -2.5927    0.7164 C   0  0  0  0  0  0  0  0  0  0  0  0
    2.8373   -3.8751    0.3789 C   0  0  0  0  0  0  0  0  0  0  0  0
    4.1771   -4.1548   -0.0034 C   0  0  0  0  0  0  0  0  0  0  0  0
    4.6046   -5.5137   -0.3491 C   0  0  0  0  0  0  0  0  0  0  0  0
    5.7692   -5.7561   -1.1215 C   0  0  0  0  0  0  0  0  0  0  0  0
    6.2136   -7.0401   -1.4659 C   0  0  0  0  0  0  0  0  0  0  0  0
    5.4807   -8.1571   -1.0461 C   0  0  0  0  0  0  0  0  0  0  0  0
    5.6495   -9.5833   -1.1649 C   0  0  0  0  0  0  0  0  0  0  0  0
    6.5741  -10.4158   -1.8075 C   0  0  0  0  0  0  0  0  0  0  0  0
    6.4048  -11.8060   -1.7502 C   0  0  0  0  0  0  0  0  0  0  0  0
    5.3264  -12.4340   -1.0765 C   0  0  0  0  0  0  0  0  0  0  0  0
    5.1857  -13.8928   -1.0393 C   0  0  0  0  0  0  0  0  0  0  0  0
    4.4099  -14.5354   -0.0372 C   0  0  0  0  0  0  0  0  0  0  0  0
    4.2716  -15.9166    0.0073 C   0  0  0  0  0  0  0  0  0  0  0  0
    4.9085  -16.7107   -0.9574 C   0  0  0  0  0  0  0  0  0  0  0  0
    4.7184  -18.4868   -0.9127 S   0  0  1  0  0  0  0  0  0  0  0  0
    3.5231  -18.7825   -0.1045 O   0  0  0  0  0  0  0  0  0  0  0  0
    4.8655  -18.9851   -2.2904 O   0  0  0  0  0  0  0  0  0  0  0  0
    6.1422  -19.1018    0.0174 C   0  0  0  0  0  0  0  0  0  0  0  0
    6.0493  -19.2294    1.4070 C   0  0  0  0  0  0  0  0  0  0  0  0
    7.1505  -19.7101    2.1192 C   0  0  0  0  0  0  0  0  0  0  0  0
    8.3239  -20.0656    1.4441 C   0  0  0  0  0  0  0  0  0  0  0  0
    8.3968  -19.9503    0.0515 C   0  0  0  0  0  0  0  0  0  0  0  0
    7.3017  -19.4708   -0.6716 C   0  0  0  0  0  0  0  0  0  0  0  0
    5.6642  -16.1087   -1.9778 C   0  0  0  0  0  0  0  0  0  0  0  0
    5.8015  -14.7284   -2.0096 C   0  0  0  0  0  0  0  0  0  0  0  0
    4.3804  -11.5801   -0.4286 C   0  0  0  0  0  0  0  0  0  0  0  0
    4.5727  -10.2046   -0.4668 C   0  0  0  0  0  0  0  0  0  0  0  0
    3.7542   -9.1813    0.0575 N   0  0  0  0  0  0  0  0  0  0  0  0
    2.5820   -9.3818    0.8049 C   0  0  0  0  0  0  0  0  0  0  0  0
    2.5755  -10.2972    1.8785 C   0  0  0  0  0  0  0  0  0  0  0  0
    1.4105  -10.4870    2.6165 C   0  0  0  0  0  0  0  0  0  0  0  0
    0.2441   -9.7825    2.2921 C   0  0  0  0  0  0  0  0  0  0  0  0
    0.2484   -8.8770    1.2235 C   0  0  0  0  0  0  0  0  0  0  0  0
    1.4083   -8.6680    0.4827 C   0  0  0  0  0  0  0  0  0  0  0  0
    4.2952   -7.9246   -0.2893 C   0  0  0  0  0  0  0  0  0  0  0  0
    3.8620   -6.6575    0.0810 C   0  0  0  0  0  0  0  0  0  0  0  0
    5.0842   -3.0608   -0.0120 C   0  0  0  0  0  0  0  0  0  0  0  0
    4.6837   -1.7767    0.3282 C   0  0  0  0  0  0  0  0  0  0  0  0
    4.3032    1.7632   -0.7136 H   0  0  0  0  0  0  0  0  0  0  0  0
    3.6443    2.8804   -2.8597 H   0  0  0  0  0  0  0  0  0  0  0  0
    1.3077    2.6682   -3.7004 H   0  0  0  0  0  0  0  0  0  0  0  0
   -0.3733    1.3627   -2.4038 H   0  0  0  0  0  0  0  0  0  0  0  0
    0.2955    0.2511   -0.2597 H   0  0  0  0  0  0  0  0  0  0  0  0
    1.3947   -2.3986    1.0193 H   0  0  0  0  0  0  0  0  0  0  0  0
    2.0953   -4.6753    0.3898 H   0  0  0  0  0  0  0  0  0  0  0  0
    6.3472   -4.9045   -1.4835 H   0  0  0  0  0  0  0  0  0  0  0  0
    7.1246   -7.1582   -2.0561 H   0  0  0  0  0  0  0  0  0  0  0  0
    7.4234   -9.9951   -2.3499 H   0  0  0  0  0  0  0  0  0  0  0  0
    7.1556  -12.4301   -2.2372 H   0  0  0  0  0  0  0  0  0  0  0  0
    3.9247  -13.9423    0.7401 H   0  0  0  0  0  0  0  0  0  0  0  0
    3.6642  -16.3932    0.7789 H   0  0  0  0  0  0  0  0  0  0  0  0
    5.1163  -18.9714    1.9114 H   0  0  0  0  0  0  0  0  0  0  0  0
    7.0895  -19.8173    3.2052 H   0  0  0  0  0  0  0  0  0  0  0  0
    9.1821  -20.4438    2.0053 H   0  0  0  0  0  0  0  0  0  0  0  0
    9.3078  -20.2449   -0.4757 H   0  0  0  0  0  0  0  0  0  0  0  0
    7.3276  -19.3986   -1.7604 H   0  0  0  0  0  0  0  0  0  0  0  0
    6.1114  -16.7291   -2.7565 H   0  0  0  0  0  0  0  0  0  0  0  0
    6.3632  -14.2836   -2.8331 H   0  0  0  0  0  0  0  0  0  0  0  0
    3.4970  -12.0047    0.0442 H   0  0  0  0  0  0  0  0  0  0  0  0
    3.4952  -10.8170    2.1484 H   0  0  0  0  0  0  0  0  0  0  0  0
    1.4148  -11.1809    3.4599 H   0  0  0  0  0  0  0  0  0  0  0  0
   -0.6679   -9.9390    2.8721 H   0  0  0  0  0  0  0  0  0  0  0  0
   -0.6641   -8.3388    0.9579 H   0  0  0  0  0  0  0  0  0  0  0  0
    1.4078   -7.9900   -0.3713 H   0  0  0  0  0  0  0  0  0  0  0  0
    2.9985   -6.5346    0.7317 H   0  0  0  0  0  0  0  0  0  0  0  0
    6.1369   -3.2286   -0.2462 H   0  0  0  0  0  0  0  0  0  0  0  0
    5.4052   -0.9582    0.3554 H   0  0  0  0  0  0  0  0  0  0  0  0
  1  2  2  0
  2  3  2  0
  2  4  1  6
  2 10  1  0
  4  5  2  0
  4  9  1  0
  5  6  1  0
  5 50  1  0
  6  7  2  0
  6 51  1  0
  7  8  1  0
  7 52  1  0
  8  9  2  0
  8 53  1  0
  9 54  1  0
 10 11  2  0
 10 49  1  0
 11 12  1  0
 11 55  1  0
 12 13  2  0
 12 56  1  0
 13 14  1  0
 13 48  1  0
 14 15  2  0
 14 47  1  0
 15 16  1  0
 15 57  1  0
 16 17  2  0
 16 58  1  0
 17 18  1  0
 17 46  1  0
 18 19  2  0
 18 38  1  0
 19 20  1  0
 19 59  1  0
 20 21  2  0
 20 60  1  0
 21 22  1  0
 21 37  1  0
 22 23  2  0
 22 36  1  0
 23 24  1  0
 23 61  1  0
 24 25  2  0
 24 62  1  0
 26 25  1  6
 25 35  1  0
 26 27  2  0
 26 28  2  0
 26 29  1  0
 29 30  2  0
 29 34  1  0
 30 31  1  0
 30 63  1  0
 31 32  2  0
 31 64  1  0
 32 33  1  0
 32 65  1  0
 33 34  2  0
 33 66  1  0
 34 67  1  0
 35 36  2  0
 35 68  1  0
 36 69  1  0
 37 38  2  0
 37 70  1  0
 38 39  1  0
 39 40  1  0
 39 46  1  0
 40 41  2  0
 40 45  1  0
 41 42  1  0
 41 71  1  0
 42 43  2  0
 42 72  1  0
 43 44  1  0
 43 73  1  0
 44 45  2  0
 44 74  1  0
 45 75  1  0
 46 47  2  0
 47 76  1  0
 48 49  2  0
 48 77  1  0
 49 78  1  0
M  END

