
     RDKit          3D

 60 64  0  0  0  0  0  0  0  0999 V2000
   -1.2694    0.5978    2.8282 C   0  0  0  0  0  0  0  0  0  0  0  0
   -0.0087    0.3106    3.3891 O   0  0  0  0  0  0  0  0  0  0  0  0
    1.1109    0.5027    2.6484 C   0  0  0  0  0  0  0  0  0  0  0  0
    1.1152    0.9539    1.3186 C   0  0  0  0  0  0  0  0  0  0  0  0
    2.3359    1.1126    0.6535 C   0  0  0  0  0  0  0  0  0  0  0  0
    3.5437    0.8316    1.2922 C   0  0  0  0  0  0  0  0  0  0  0  0
    3.5408    0.3864    2.6252 C   0  0  0  0  0  0  0  0  0  0  0  0
    4.8614    0.0337    3.3105 C   0  0  1  0  0  0  0  0  0  0  0  0
    4.9550    0.3555    4.7850 C   0  0  0  0  0  0  0  0  0  0  0  0
    4.7577    1.6072    5.4573 C   0  0  0  0  0  0  0  0  0  0  0  0
    4.5980    1.5784    6.8010 O   0  0  0  0  0  0  0  0  0  0  0  0
    4.7136    2.9284    4.8840 C   0  0  0  0  0  0  0  0  0  0  0  0
    4.2817    4.0156    5.7038 C   0  0  0  0  0  0  0  0  0  0  0  0
    4.2318    5.3266    5.2388 C   0  0  0  0  0  0  0  0  0  0  0  0
    4.6258    5.5740    3.9228 C   0  0  0  0  0  0  0  0  0  0  0  0
    5.0671    4.5357    3.0889 C   0  0  0  0  0  0  0  0  0  0  0  0
    5.1139    3.2317    3.5481 C   0  0  0  0  0  0  0  0  0  0  0  0
    5.3678    5.1432    1.7381 C   0  0  0  0  0  0  0  0  0  0  0  0
    5.3483    6.6597    2.0589 C   0  0  1  0  0  0  0  0  0  0  0  0
    4.6904    7.5501    1.0233 C   0  0  0  0  0  0  0  0  0  0  0  0
    4.6381    6.7907    3.3172 O   0  0  0  0  0  0  0  0  0  0  0  0
    5.1387   -0.8103    5.5397 C   0  0  0  0  0  0  0  0  0  0  0  0
    5.2119   -0.9962    6.7727 O   0  0  0  0  0  0  0  0  0  0  0  0
    5.2341   -1.9792    4.4946 C   0  0  0  0  0  0  0  0  0  0  0  0
    5.4414   -3.1510    4.7553 O   0  0  0  0  0  0  0  0  0  0  0  0
    5.0792   -1.4280    3.2799 N   0  0  0  0  0  0  0  0  0  0  0  0
    5.2179   -2.2006    2.0543 C   0  0  0  0  0  0  0  0  0  0  0  0
    6.6078   -2.1222    1.4250 C   0  0  1  0  0  0  0  0  0  0  0  0
    6.7897   -3.0031    0.1843 C   0  0  0  0  0  0  0  0  0  0  0  0
    7.8996   -2.2570   -0.5655 C   0  0  0  0  0  0  0  0  0  0  0  0
    7.5576   -0.7908   -0.2703 C   0  0  0  0  0  0  0  0  0  0  0  0
    6.8624   -0.7875    0.9794 O   0  0  0  0  0  0  0  0  0  0  0  0
    2.3274    0.2234    3.2931 C   0  0  0  0  0  0  0  0  0  0  0  0
   -1.4807   -0.0311    1.9441 H   0  0  0  0  0  0  0  0  0  0  0  0
   -1.3584    1.6602    2.5374 H   0  0  0  0  0  0  0  0  0  0  0  0
   -2.0144    0.3790    3.6049 H   0  0  0  0  0  0  0  0  0  0  0  0
    0.1850    1.1849    0.7995 H   0  0  0  0  0  0  0  0  0  0  0  0
    2.3361    1.4648   -0.3815 H   0  0  0  0  0  0  0  0  0  0  0  0
    4.4926    0.9511    0.7641 H   0  0  0  0  0  0  0  0  0  0  0  0
    5.6861    0.4747    2.7304 H   0  0  0  0  0  0  0  0  0  0  0  0
    4.7210    0.6655    7.1332 H   0  0  0  0  0  0  0  0  0  0  0  0
    3.9843    3.7999    6.7292 H   0  0  0  0  0  0  0  0  0  0  0  0
    3.8991    6.1434    5.8823 H   0  0  0  0  0  0  0  0  0  0  0  0
    5.4895    2.4542    2.8875 H   0  0  0  0  0  0  0  0  0  0  0  0
    4.5827    4.8818    1.0049 H   0  0  0  0  0  0  0  0  0  0  0  0
    6.3331    4.8284    1.3123 H   0  0  0  0  0  0  0  0  0  0  0  0
    6.3827    7.0057    2.2460 H   0  0  0  0  0  0  0  0  0  0  0  0
    3.6545    7.2258    0.8357 H   0  0  0  0  0  0  0  0  0  0  0  0
    5.2477    7.5099    0.0738 H   0  0  0  0  0  0  0  0  0  0  0  0
    4.6687    8.5955    1.3666 H   0  0  0  0  0  0  0  0  0  0  0  0
    4.4693   -1.8377    1.3333 H   0  0  0  0  0  0  0  0  0  0  0  0
    4.9887   -3.2492    2.2936 H   0  0  0  0  0  0  0  0  0  0  0  0
    7.3574   -2.3979    2.1940 H   0  0  0  0  0  0  0  0  0  0  0  0
    5.8598   -3.0176   -0.4106 H   0  0  0  0  0  0  0  0  0  0  0  0
    7.0483   -4.0422    0.4357 H   0  0  0  0  0  0  0  0  0  0  0  0
    7.9284   -2.4793   -1.6424 H   0  0  0  0  0  0  0  0  0  0  0  0
    8.8833   -2.5167   -0.1420 H   0  0  0  0  0  0  0  0  0  0  0  0
    6.9010   -0.3635   -1.0508 H   0  0  0  0  0  0  0  0  0  0  0  0
    8.4507   -0.1484   -0.1931 H   0  0  0  0  0  0  0  0  0  0  0  0
    2.2964   -0.1106    4.3317 H   0  0  0  0  0  0  0  0  0  0  0  0
  1  2  1  0
  1 34  1  0
  1 35  1  0
  1 36  1  0
  2  3  1  0
  3  4  2  0
  3 33  1  0
  4  5  1  0
  4 37  1  0
  5  6  2  0
  5 38  1  0
  6  7  1  0
  6 39  1  0
  7  8  1  0
  7 33  2  0
  8  9  1  0
  8 26  1  0
  8 40  1  6
  9 10  2  0
  9 22  1  0
 10 11  1  0
 10 12  1  0
 11 41  1  0
 12 13  2  0
 12 17  1  0
 13 14  1  0
 13 42  1  0
 14 15  2  0
 14 43  1  0
 15 16  1  0
 15 21  1  0
 16 17  2  0
 16 18  1  0
 17 44  1  0
 18 19  1  0
 18 45  1  0
 18 46  1  0
 19 20  1  0
 19 21  1  0
 19 47  1  1
 20 48  1  0
 20 49  1  0
 20 50  1  0
 22 23  2  0
 22 24  1  0
 24 25  2  0
 24 26  1  0
 26 27  1  0
 27 28  1  0
 27 51  1  0
 27 52  1  0
 28 29  1  0
 28 32  1  0
 28 53  1  1
 29 30  1  0
 29 54  1  0
 29 55  1  0
 30 31  1  0
 30 56  1  0
 30 57  1  0
 31 32  1  0
 31 58  1  0
 31 59  1  0
 33 60  1  0
M  END

