
     RDKit          3D

 53 55  0  0  0  0  0  0  0  0999 V2000
    3.1641    1.4820    0.2088 C   0  0  0  0  0  0  0  0  0  0  0  0
    2.1065    0.4742   -0.2668 C   0  0  1  0  0  0  0  0  0  0  0  0
    1.2220    1.1443   -1.3246 C   0  0  0  0  0  0  0  0  0  0  0  0
    2.7578   -0.7459   -0.7791 N   0  0  0  0  0  0  0  0  0  0  0  0
    3.4622   -1.5478    0.2190 C   0  0  0  0  0  0  0  0  0  0  0  0
    2.5250   -2.4011    1.0996 C   0  0  0  0  0  0  0  0  0  0  0  0
    1.5901   -3.3079    0.2649 C   0  0  2  0  0  0  0  0  0  0  0  0
    0.9462   -2.4870   -0.8788 C   0  0  0  0  0  0  0  0  0  0  0  0
    1.9826   -1.6354   -1.6388 C   0  0  0  0  0  0  0  0  0  0  0  0
    0.5885   -3.9690    1.0921 N   0  0  0  0  0  0  0  0  0  0  0  0
    0.6479   -5.3323    1.0695 C   0  0  0  0  0  0  0  0  0  0  0  0
   -0.0701   -6.1303    1.6286 O   0  0  0  0  0  0  0  0  0  0  0  0
    1.7453   -5.6582    0.2348 N   0  0  0  0  0  0  0  0  0  0  0  0
    2.1414   -7.0278   -0.0731 C   0  0  0  0  0  0  0  0  0  0  0  0
    3.4166   -7.4920    0.6425 C   0  0  0  0  0  0  0  0  0  0  0  0
    3.3862   -7.4612    2.1906 C   0  0  1  0  0  0  0  0  0  0  0  0
    2.3675   -8.4265    2.8270 C   0  0  0  0  0  0  0  0  0  0  0  0
    2.8241   -9.8900    2.7562 C   0  0  0  0  0  0  0  0  0  0  0  0
    4.2290  -10.0449    3.3516 C   0  0  0  0  0  0  0  0  0  0  0  0
    5.2051   -9.0697    2.6898 C   0  0  0  0  0  0  0  0  0  0  0  0
    4.6988   -7.7048    2.7990 N   0  0  0  0  0  0  0  0  0  0  0  0
    2.3463   -4.5362   -0.2888 C   0  0  0  0  0  0  0  0  0  0  0  0
    3.2922   -4.5292   -1.0499 O   0  0  0  0  0  0  0  0  0  0  0  0
    2.6794    2.3982    0.5810 H   0  0  0  0  0  0  0  0  0  0  0  0
    3.8308    1.7502   -0.6264 H   0  0  0  0  0  0  0  0  0  0  0  0
    3.7877    1.0923    1.0265 H   0  0  0  0  0  0  0  0  0  0  0  0
    1.4498    0.2494    0.6062 H   0  0  0  0  0  0  0  0  0  0  0  0
    1.7972    1.3411   -2.2442 H   0  0  0  0  0  0  0  0  0  0  0  0
    0.8549    2.1082   -0.9410 H   0  0  0  0  0  0  0  0  0  0  0  0
    0.3386    0.5457   -1.5917 H   0  0  0  0  0  0  0  0  0  0  0  0
    4.0738   -0.9019    0.8636 H   0  0  0  0  0  0  0  0  0  0  0  0
    4.1584   -2.2181   -0.3094 H   0  0  0  0  0  0  0  0  0  0  0  0
    1.8848   -1.7446    1.7147 H   0  0  0  0  0  0  0  0  0  0  0  0
    3.1092   -3.0163    1.8042 H   0  0  0  0  0  0  0  0  0  0  0  0
    0.1797   -1.8330   -0.4263 H   0  0  0  0  0  0  0  0  0  0  0  0
    0.4162   -3.1645   -1.5692 H   0  0  0  0  0  0  0  0  0  0  0  0
    1.4828   -1.0650   -2.4320 H   0  0  0  0  0  0  0  0  0  0  0  0
    2.6908   -2.3137   -2.1403 H   0  0  0  0  0  0  0  0  0  0  0  0
   -0.1354   -3.4887    1.6113 H   0  0  0  0  0  0  0  0  0  0  0  0
    2.2967   -7.0880   -1.1616 H   0  0  0  0  0  0  0  0  0  0  0  0
    1.2802   -7.6595    0.1856 H   0  0  0  0  0  0  0  0  0  0  0  0
    4.2526   -6.8585    0.2993 H   0  0  0  0  0  0  0  0  0  0  0  0
    3.6363   -8.5094    0.2783 H   0  0  0  0  0  0  0  0  0  0  0  0
    3.0951   -6.4375    2.4862 H   0  0  0  0  0  0  0  0  0  0  0  0
    1.3742   -8.2878    2.3741 H   0  0  0  0  0  0  0  0  0  0  0  0
    2.2645   -8.1408    3.8874 H   0  0  0  0  0  0  0  0  0  0  0  0
    2.8295  -10.2405    1.7077 H   0  0  0  0  0  0  0  0  0  0  0  0
    2.1045  -10.5350    3.2877 H   0  0  0  0  0  0  0  0  0  0  0  0
    4.5949  -11.0793    3.2374 H   0  0  0  0  0  0  0  0  0  0  0  0
    4.1927   -9.8272    4.4334 H   0  0  0  0  0  0  0  0  0  0  0  0
    5.3813   -9.3995    1.6397 H   0  0  0  0  0  0  0  0  0  0  0  0
    6.1847   -9.1134    3.1943 H   0  0  0  0  0  0  0  0  0  0  0  0
    5.3838   -7.0378    2.4494 H   0  0  0  0  0  0  0  0  0  0  0  0
  1  2  1  0
  1 24  1  0
  1 25  1  0
  1 26  1  0
  2  3  1  0
  2  4  1  0
  2 27  1  1
  3 28  1  0
  3 29  1  0
  3 30  1  0
  4  5  1  0
  4  9  1  0
  5  6  1  0
  5 31  1  0
  5 32  1  0
  6  7  1  0
  6 33  1  0
  6 34  1  0
  7  8  1  0
  7 10  1  0
  7 22  1  6
  8  9  1  0
  8 35  1  0
  8 36  1  0
  9 37  1  0
  9 38  1  0
 10 11  1  0
 10 39  1  0
 11 12  2  0
 11 13  1  0
 13 14  1  0
 13 22  1  0
 14 15  1  0
 14 40  1  0
 14 41  1  0
 15 16  1  0
 15 42  1  0
 15 43  1  0
 16 17  1  0
 16 21  1  0
 16 44  1  6
 17 18  1  0
 17 45  1  0
 17 46  1  0
 18 19  1  0
 18 47  1  0
 18 48  1  0
 19 20  1  0
 19 49  1  0
 19 50  1  0
 20 21  1  0
 20 51  1  0
 20 52  1  0
 21 53  1  0
 22 23  2  0
M  END

