
     RDKit          3D

 45 47  0  0  0  0  0  0  0  0999 V2000
    0.8670    0.0110    0.3702 C   0  0  0  0  0  0  0  0  0  0  0  0
    2.3323    0.1186   -0.0190 C   0  0  1  0  0  0  0  0  0  0  0  0
    2.4946    0.4086   -1.4020 O   0  0  0  0  0  0  0  0  0  0  0  0
    2.9661   -0.5988   -2.2020 C   0  0  0  0  0  0  0  0  0  0  0  0
    2.9947   -1.7460   -1.8479 O   0  0  0  0  0  0  0  0  0  0  0  0
    3.4495   -0.0653   -3.5440 C   0  0  0  0  0  0  0  0  0  0  0  0
    4.7903   -0.4886   -3.8495 N   0  0  0  0  0  0  0  0  0  0  0  0
    5.8030   -0.2162   -2.8957 C   0  0  0  0  0  0  0  0  0  0  0  0
    5.4714    0.4687   -1.8510 O   0  0  0  0  0  0  0  0  0  0  0  0
    7.1048   -0.7095   -3.1597 C   0  0  0  0  0  0  0  0  0  0  0  0
    8.1175   -0.6617   -2.1360 C   0  0  0  0  0  0  0  0  0  0  0  0
    9.3948   -1.1796   -2.3212 C   0  0  0  0  0  0  0  0  0  0  0  0
    9.6861   -1.7672   -3.5545 C   0  0  0  0  0  0  0  0  0  0  0  0
    8.7281   -1.8103   -4.5754 C   0  0  0  0  0  0  0  0  0  0  0  0
    7.4567   -1.3100   -4.4370 C   0  0  0  0  0  0  0  0  0  0  0  0
    9.3070   -2.3667   -5.6968 O   0  0  0  0  0  0  0  0  0  0  0  0
   10.5315   -2.9254   -5.2389 C   0  0  0  0  0  0  0  0  0  0  0  0
   10.8852   -2.2758   -4.0342 O   0  0  0  0  0  0  0  0  0  0  0  0
    3.0626    1.2196    0.7483 C   0  0  0  0  0  0  0  0  0  0  0  0
    2.6648    1.6646    1.7981 O   0  0  0  0  0  0  0  0  0  0  0  0
    4.2710    1.6523    0.1361 N   0  0  0  0  0  0  0  0  0  0  0  0
    5.0302    2.7006    0.5143 C   0  0  0  0  0  0  0  0  0  0  0  0
    6.2430    2.9192   -0.2406 C   0  0  0  0  0  0  0  0  0  0  0  0
    7.0595    3.9836    0.0651 C   0  0  0  0  0  0  0  0  0  0  0  0
    6.7205    4.8611    1.1170 C   0  0  0  0  0  0  0  0  0  0  0  0
    5.5410    4.6579    1.8676 C   0  0  0  0  0  0  0  0  0  0  0  0
    4.6983    3.6037    1.5885 C   0  0  0  0  0  0  0  0  0  0  0  0
    0.4146   -0.8357   -0.1639 H   0  0  0  0  0  0  0  0  0  0  0  0
    0.3247    0.9315    0.1075 H   0  0  0  0  0  0  0  0  0  0  0  0
    0.7673   -0.1562    1.4516 H   0  0  0  0  0  0  0  0  0  0  0  0
    2.8461   -0.8361    0.1991 H   0  0  0  0  0  0  0  0  0  0  0  0
    3.3739    1.0312   -3.5332 H   0  0  0  0  0  0  0  0  0  0  0  0
    2.7702   -0.4451   -4.3243 H   0  0  0  0  0  0  0  0  0  0  0  0
    4.8511   -1.4185   -4.2557 H   0  0  0  0  0  0  0  0  0  0  0  0
    7.8399   -0.2374   -1.1720 H   0  0  0  0  0  0  0  0  0  0  0  0
   10.1456   -1.1397   -1.5297 H   0  0  0  0  0  0  0  0  0  0  0  0
    6.7652   -1.3180   -5.2786 H   0  0  0  0  0  0  0  0  0  0  0  0
   11.3166   -2.7654   -5.9947 H   0  0  0  0  0  0  0  0  0  0  0  0
   10.3922   -4.0141   -5.0556 H   0  0  0  0  0  0  0  0  0  0  0  0
    4.6340    1.1058   -0.7227 H   0  0  0  0  0  0  0  0  0  0  0  0
    6.4650    2.2080   -1.0371 H   0  0  0  0  0  0  0  0  0  0  0  0
    7.9750    4.1450   -0.5052 H   0  0  0  0  0  0  0  0  0  0  0  0
    7.3739    5.7024    1.3552 H   0  0  0  0  0  0  0  0  0  0  0  0
    5.2922    5.3456    2.6777 H   0  0  0  0  0  0  0  0  0  0  0  0
    3.7913    3.4352    2.1608 H   0  0  0  0  0  0  0  0  0  0  0  0
  1  2  1  0
  1 28  1  0
  1 29  1  0
  1 30  1  0
  2  3  1  0
  2 19  1  0
  2 31  1  1
  3  4  1  0
  4  5  2  0
  4  6  1  0
  6  7  1  0
  6 32  1  0
  6 33  1  0
  7  8  1  0
  7 34  1  0
  8  9  2  0
  8 10  1  0
 10 11  2  0
 10 15  1  0
 11 12  1  0
 11 35  1  0
 12 13  2  0
 12 36  1  0
 13 14  1  0
 13 18  1  0
 14 15  2  0
 14 16  1  0
 15 37  1  0
 16 17  1  0
 17 18  1  0
 17 38  1  0
 17 39  1  0
 19 20  2  0
 19 21  1  0
 21 22  1  0
 21 40  1  0
 22 23  2  0
 22 27  1  0
 23 24  1  0
 23 41  1  0
 24 25  2  0
 24 42  1  0
 25 26  1  0
 25 43  1  0
 26 27  2  0
 26 44  1  0
 27 45  1  0
M  END

