
     RDKit          3D

 52 59  0  0  0  0  0  0  0  0999 V2000
    5.8157    1.4214   -0.3179 F   0  0  0  0  0  0  0  0  0  0  0  0
    5.6850    2.5335    0.4281 C   0  0  1  0  0  0  0  0  0  0  0  0
    6.3692    2.3164    1.5685 F   0  0  0  0  0  0  0  0  0  0  0  0
    6.3093    3.5319   -0.2208 F   0  0  0  0  0  0  0  0  0  0  0  0
    4.2365    2.8537    0.7023 C   0  0  0  0  0  0  0  0  0  0  0  0
    3.3648    1.8020    1.0510 C   0  0  0  0  0  0  0  0  0  0  0  0
    2.0272    2.0466    1.3611 C   0  0  0  0  0  0  0  0  0  0  0  0
    1.5991    3.3690    1.3081 C   0  0  0  0  0  0  0  0  0  0  0  0
    0.3290    3.7979    1.5758 O   0  0  0  0  0  0  0  0  0  0  0  0
    0.3275    5.1517    1.4049 C   0  0  0  0  0  0  0  0  0  0  0  0
   -0.7650    5.8626    1.5922 N   0  0  0  0  0  0  0  0  0  0  0  0
   -0.5728    7.1484    1.3793 C   0  0  0  0  0  0  0  0  0  0  0  0
   -1.5857    8.0476    1.5211 O   0  0  0  0  0  0  0  0  0  0  0  0
   -1.0616    9.2795    1.2286 C   0  0  0  0  0  0  0  0  0  0  0  0
   -1.7640   10.4787    1.2498 C   0  0  0  0  0  0  0  0  0  0  0  0
   -1.0536   11.6366    0.9278 C   0  0  0  0  0  0  0  0  0  0  0  0
    0.3131   11.5878    0.5762 C   0  0  0  0  0  0  0  0  0  0  0  0
    0.9951   12.7897    0.2448 N   0  0  0  0  0  0  0  0  0  0  0  0
    2.0978   13.3183    0.9230 C   0  0  0  0  0  0  0  0  0  0  0  0
    2.7585   12.8369    2.0603 C   0  0  0  0  0  0  0  0  0  0  0  0
    3.8344   13.5782    2.5510 C   0  0  0  0  0  0  0  0  0  0  0  0
    4.2457   14.7732    1.9309 C   0  0  0  0  0  0  0  0  0  0  0  0
    3.5789   15.2535    0.8045 C   0  0  0  0  0  0  0  0  0  0  0  0
    2.4939   14.5284    0.2907 C   0  0  0  0  0  0  0  0  0  0  0  0
    1.5871   14.7345   -0.8222 C   0  0  0  0  0  0  0  0  0  0  0  0
    1.4738   15.7232   -1.8106 C   0  0  0  0  0  0  0  0  0  0  0  0
    0.4703   15.6116   -2.7721 C   0  0  0  0  0  0  0  0  0  0  0  0
   -0.4169   14.5187   -2.7578 C   0  0  0  0  0  0  0  0  0  0  0  0
   -0.3267   13.5212   -1.7859 C   0  0  0  0  0  0  0  0  0  0  0  0
    0.6769   13.6427   -0.8165 C   0  0  0  0  0  0  0  0  0  0  0  0
    1.0000   10.3670    0.5517 C   0  0  0  0  0  0  0  0  0  0  0  0
    0.3070    9.1994    0.8929 C   0  0  0  0  0  0  0  0  0  0  0  0
    0.6382    7.7894    0.9895 C   0  0  0  0  0  0  0  0  0  0  0  0
    1.7753    6.9970    0.8018 C   0  0  0  0  0  0  0  0  0  0  0  0
    1.6131    5.6243    1.0182 C   0  0  0  0  0  0  0  0  0  0  0  0
    2.4499    4.4401    0.9578 C   0  0  0  0  0  0  0  0  0  0  0  0
    3.7897    4.1766    0.6507 C   0  0  0  0  0  0  0  0  0  0  0  0
    3.7441    0.7786    1.0723 H   0  0  0  0  0  0  0  0  0  0  0  0
    1.3407    1.2428    1.6304 H   0  0  0  0  0  0  0  0  0  0  0  0
   -2.8207   10.5085    1.5197 H   0  0  0  0  0  0  0  0  0  0  0  0
   -1.5550   12.6058    0.9507 H   0  0  0  0  0  0  0  0  0  0  0  0
    2.4416   11.9161    2.5531 H   0  0  0  0  0  0  0  0  0  0  0  0
    4.3652   13.2225    3.4379 H   0  0  0  0  0  0  0  0  0  0  0  0
    5.0926   15.3290    2.3401 H   0  0  0  0  0  0  0  0  0  0  0  0
    3.8950   16.1856    0.3292 H   0  0  0  0  0  0  0  0  0  0  0  0
    2.1661   16.5688   -1.8278 H   0  0  0  0  0  0  0  0  0  0  0  0
    0.3717   16.3758   -3.5467 H   0  0  0  0  0  0  0  0  0  0  0  0
   -1.1923   14.4459   -3.5247 H   0  0  0  0  0  0  0  0  0  0  0  0
   -1.0147   12.6741   -1.7873 H   0  0  0  0  0  0  0  0  0  0  0  0
    2.0524   10.3416    0.2637 H   0  0  0  0  0  0  0  0  0  0  0  0
    2.7349    7.4251    0.5032 H   0  0  0  0  0  0  0  0  0  0  0  0
    4.4750    4.9783    0.3723 H   0  0  0  0  0  0  0  0  0  0  0  0
  2  1  1  6
  2  3  1  0
  2  4  1  0
  2  5  1  0
  5  6  2  0
  5 37  1  0
  6  7  1  0
  6 38  1  0
  7  8  2  0
  7 39  1  0
  8  9  1  0
  8 36  1  0
  9 10  1  0
 10 11  1  0
 10 35  2  0
 11 12  2  0
 12 13  1  0
 12 33  1  0
 13 14  1  0
 14 15  1  0
 14 32  2  0
 15 16  2  0
 15 40  1  0
 16 17  1  0
 16 41  1  0
 17 18  1  0
 17 31  2  0
 18 19  1  0
 18 30  1  0
 19 20  2  0
 19 24  1  0
 20 21  1  0
 20 42  1  0
 21 22  2  0
 21 43  1  0
 22 23  1  0
 22 44  1  0
 23 24  2  0
 23 45  1  0
 24 25  1  0
 25 26  1  0
 25 30  2  0
 26 27  2  0
 26 46  1  0
 27 28  1  0
 27 47  1  0
 28 29  2  0
 28 48  1  0
 29 30  1  0
 29 49  1  0
 31 32  1  0
 31 50  1  0
 32 33  1  0
 33 34  2  0
 34 35  1  0
 34 51  1  0
 35 36  1  0
 36 37  2  0
 37 52  1  0
M  END

