
     RDKit          3D

101106  0  0  0  0  0  0  0  0999 V2000
    1.0704   -0.9469    1.1037 C   0  0  0  0  0  0  0  0  0  0  0  0
    2.2182   -0.7339    0.4558 C   0  0  0  0  0  0  0  0  0  0  0  0
    3.1841   -1.8076    0.0482 C   0  0  0  0  0  0  0  0  0  0  0  0
    4.4910   -1.3667    0.3957 O   0  0  0  0  0  0  0  0  0  0  0  0
    5.6142   -2.2166    0.3910 C   0  0  2  0  0  0  0  0  0  0  0  0
    6.7171   -1.3343    0.4864 O   0  0  0  0  0  0  0  0  0  0  0  0
    6.9335   -0.6928    1.6872 C   0  0  0  0  0  0  0  0  0  0  0  0
    7.7987    0.4037    1.6602 C   0  0  0  0  0  0  0  0  0  0  0  0
    8.0928    1.1037    2.8305 C   0  0  0  0  0  0  0  0  0  0  0  0
    7.5096    0.7101    4.0411 C   0  0  0  0  0  0  0  0  0  0  0  0
    7.7446    1.3518    5.2208 O   0  0  0  0  0  0  0  0  0  0  0  0
    6.6470   -0.3918    4.0613 C   0  0  0  0  0  0  0  0  0  0  0  0
    6.3503   -1.1149    2.8995 C   0  0  0  0  0  0  0  0  0  0  0  0
    5.3996   -2.3008    2.8877 C   0  0  2  0  0  0  0  0  0  0  0  0
    5.3765   -3.1871    4.1540 C   0  0  2  0  0  0  0  0  0  0  0  0
    6.7361   -3.8751    4.4335 C   0  0  0  0  0  0  0  0  0  0  0  0
    7.1290   -4.0011    5.9143 C   0  0  0  0  0  0  0  0  0  0  0  0
    6.2281   -4.8735    6.7937 C   0  0  0  0  0  0  0  0  0  0  0  0
    6.7503   -5.0259    8.2229 C   0  0  0  0  0  0  0  0  0  0  0  0
    5.9506   -5.8756    9.0191 O   0  0  0  0  0  0  0  0  0  0  0  0
    4.2074   -4.2022    4.0219 C   0  0  1  0  0  0  0  0  0  0  0  0
    2.8408   -3.5873    4.4142 C   0  0  0  0  0  0  0  0  0  0  0  0
    1.6550   -4.5573    4.3848 C   0  0  0  0  0  0  0  0  0  0  0  0
    0.3517   -3.9318    4.8887 C   0  0  0  0  0  0  0  0  0  0  0  0
   -0.8400   -4.8885    4.8625 C   0  0  0  0  0  0  0  0  0  0  0  0
   -2.0506   -4.2763    5.2541 O   0  0  0  0  0  0  0  0  0  0  0  0
    4.1849   -4.8647    2.6645 C   0  0  0  0  0  0  0  0  0  0  0  0
    4.8332   -4.4074    1.5721 C   0  0  0  0  0  0  0  0  0  0  0  0
    4.8922   -5.1260    0.2757 C   0  0  0  0  0  0  0  0  0  0  0  0
    4.9153   -6.3978    0.0666 N   0  0  0  0  0  0  0  0  0  0  0  0
    4.8038   -7.1842    1.1873 O   0  0  0  0  0  0  0  0  0  0  0  0
    4.9471   -8.5796    0.8318 C   0  0  1  0  0  0  0  0  0  0  0  0
    6.4063   -8.9191    0.5210 C   0  0  0  0  0  0  0  0  0  0  0  0
    7.2726   -8.8835    1.7845 C   0  0  0  0  0  0  0  0  0  0  0  0
    6.6234   -9.7368    2.8805 C   0  0  0  0  0  0  0  0  0  0  0  0
    5.1775   -9.2993    3.0964 C   0  0  0  0  0  0  0  0  0  0  0  0
    4.4234   -9.3170    1.8822 O   0  0  0  0  0  0  0  0  0  0  0  0
    4.9467   -4.2942   -0.9925 C   0  0  0  0  0  0  0  0  0  0  0  0
    5.8384   -3.0414   -0.9010 C   0  0  1  0  0  0  0  0  0  0  0  0
    5.6142   -2.1131   -2.4749 S   0  0  0  0  0  0  0  0  0  0  0  0
    7.0816   -1.0136   -2.5276 C   0  0  0  0  0  0  0  0  0  0  0  0
    7.1733   -0.3583   -3.9142 C   0  0  0  0  0  0  0  0  0  0  0  0
    8.3485    0.5882   -4.0064 C   0  0  0  0  0  0  0  0  0  0  0  0
    9.5860    0.1789   -4.5222 C   0  0  0  0  0  0  0  0  0  0  0  0
   10.6516    1.0839   -4.5492 C   0  0  0  0  0  0  0  0  0  0  0  0
   10.5664    2.3398   -4.1045 N   0  0  0  0  0  0  0  0  0  0  0  0
    9.3888    2.7346   -3.6128 C   0  0  0  0  0  0  0  0  0  0  0  0
    8.2635    1.9090   -3.5419 C   0  0  0  0  0  0  0  0  0  0  0  0
    5.6711   -3.1451    1.6367 C   0  0  1  0  0  0  0  0  0  0  0  0
    0.3862   -0.1272    1.3391 H   0  0  0  0  0  0  0  0  0  0  0  0
    0.7625   -1.9510    1.4151 H   0  0  0  0  0  0  0  0  0  0  0  0
    2.5071    0.2805    0.1564 H   0  0  0  0  0  0  0  0  0  0  0  0
    3.1257   -1.9514   -1.0473 H   0  0  0  0  0  0  0  0  0  0  0  0
    2.9232   -2.7608    0.5395 H   0  0  0  0  0  0  0  0  0  0  0  0
    8.2394    0.7024    0.7070 H   0  0  0  0  0  0  0  0  0  0  0  0
    8.7733    1.9603    2.7983 H   0  0  0  0  0  0  0  0  0  0  0  0
    8.3459    2.0920    5.0684 H   0  0  0  0  0  0  0  0  0  0  0  0
    6.2100   -0.6734    5.0203 H   0  0  0  0  0  0  0  0  0  0  0  0
    4.3861   -1.8816    2.7679 H   0  0  0  0  0  0  0  0  0  0  0  0
    5.1416   -2.5358    5.0122 H   0  0  0  0  0  0  0  0  0  0  0  0
    7.5358   -3.3011    3.9382 H   0  0  0  0  0  0  0  0  0  0  0  0
    6.7460   -4.8742    3.9629 H   0  0  0  0  0  0  0  0  0  0  0  0
    7.1905   -2.9876    6.3521 H   0  0  0  0  0  0  0  0  0  0  0  0
    8.1567   -4.4051    5.9601 H   0  0  0  0  0  0  0  0  0  0  0  0
    6.1207   -5.8826    6.3579 H   0  0  0  0  0  0  0  0  0  0  0  0
    5.2091   -4.4450    6.8408 H   0  0  0  0  0  0  0  0  0  0  0  0
    6.8702   -4.0236    8.6858 H   0  0  0  0  0  0  0  0  0  0  0  0
    7.7545   -5.4819    8.2043 H   0  0  0  0  0  0  0  0  0  0  0  0
    5.0787   -5.4692    9.1083 H   0  0  0  0  0  0  0  0  0  0  0  0
    4.3866   -5.0165    4.7465 H   0  0  0  0  0  0  0  0  0  0  0  0
    2.6205   -2.7268    3.7587 H   0  0  0  0  0  0  0  0  0  0  0  0
    2.9379   -3.1751    5.4350 H   0  0  0  0  0  0  0  0  0  0  0  0
    1.8956   -5.4492    4.9936 H   0  0  0  0  0  0  0  0  0  0  0  0
    1.4996   -4.9287    3.3568 H   0  0  0  0  0  0  0  0  0  0  0  0
    0.0951   -3.0445    4.2835 H   0  0  0  0  0  0  0  0  0  0  0  0
    0.4940   -3.5651    5.9240 H   0  0  0  0  0  0  0  0  0  0  0  0
   -0.6149   -5.7839    5.4801 H   0  0  0  0  0  0  0  0  0  0  0  0
   -1.0015   -5.2534    3.8342 H   0  0  0  0  0  0  0  0  0  0  0  0
   -1.9534   -3.9776    6.1678 H   0  0  0  0  0  0  0  0  0  0  0  0
    3.6248   -5.7962    2.5806 H   0  0  0  0  0  0  0  0  0  0  0  0
    4.3020   -8.7631   -0.0417 H   0  0  0  0  0  0  0  0  0  0  0  0
    6.7716   -8.2228   -0.2492 H   0  0  0  0  0  0  0  0  0  0  0  0
    6.4215   -9.9310    0.0805 H   0  0  0  0  0  0  0  0  0  0  0  0
    7.3646   -7.8411    2.1362 H   0  0  0  0  0  0  0  0  0  0  0  0
    8.2929   -9.2353    1.5618 H   0  0  0  0  0  0  0  0  0  0  0  0
    7.1759   -9.6573    3.8319 H   0  0  0  0  0  0  0  0  0  0  0  0
    6.6395  -10.8007    2.5845 H   0  0  0  0  0  0  0  0  0  0  0  0
    5.1485   -8.2857    3.5370 H   0  0  0  0  0  0  0  0  0  0  0  0
    4.6470   -9.9791    3.7794 H   0  0  0  0  0  0  0  0  0  0  0  0
    3.9174   -3.9988   -1.2549 H   0  0  0  0  0  0  0  0  0  0  0  0
    5.2971   -4.9330   -1.8141 H   0  0  0  0  0  0  0  0  0  0  0  0
    6.8908   -3.3632   -0.8572 H   0  0  0  0  0  0  0  0  0  0  0  0
    7.9846   -1.6100   -2.3216 H   0  0  0  0  0  0  0  0  0  0  0  0
    6.9949   -0.2548   -1.7396 H   0  0  0  0  0  0  0  0  0  0  0  0
    6.2389    0.1921   -4.1150 H   0  0  0  0  0  0  0  0  0  0  0  0
    7.2580   -1.1409   -4.6852 H   0  0  0  0  0  0  0  0  0  0  0  0
    9.7208   -0.8362   -4.9063 H   0  0  0  0  0  0  0  0  0  0  0  0
   11.6224    0.7729   -4.9544 H   0  0  0  0  0  0  0  0  0  0  0  0
    9.3304    3.7700   -3.2552 H   0  0  0  0  0  0  0  0  0  0  0  0
    7.3263    2.2966   -3.1323 H   0  0  0  0  0  0  0  0  0  0  0  0
    6.7268   -3.4764    1.6601 H   0  0  0  0  0  0  0  0  0  0  0  0
  1  2  2  0
  1 50  1  0
  1 51  1  0
  2  3  1  0
  2 52  1  0
  3  4  1  0
  3 53  1  0
  3 54  1  0
  5  4  1  6
  5  6  1  0
  5 39  1  0
  5 49  1  0
  6  7  1  0
  7  8  2  0
  7 13  1  0
  8  9  1  0
  8 55  1  0
  9 10  2  0
  9 56  1  0
 10 11  1  0
 10 12  1  0
 11 57  1  0
 12 13  2  0
 12 58  1  0
 13 14  1  0
 14 15  1  0
 14 49  1  0
 14 59  1  6
 15 16  1  0
 15 21  1  0
 15 60  1  1
 16 17  1  0
 16 61  1  0
 16 62  1  0
 17 18  1  0
 17 63  1  0
 17 64  1  0
 18 19  1  0
 18 65  1  0
 18 66  1  0
 19 20  1  0
 19 67  1  0
 19 68  1  0
 20 69  1  0
 21 22  1  0
 21 27  1  0
 21 70  1  1
 22 23  1  0
 22 71  1  0
 22 72  1  0
 23 24  1  0
 23 73  1  0
 23 74  1  0
 24 25  1  0
 24 75  1  0
 24 76  1  0
 25 26  1  0
 25 77  1  0
 25 78  1  0
 26 79  1  0
 27 28  2  0
 27 80  1  0
 28 29  1  0
 28 49  1  0
 29 30  2  0
 29 38  1  0
 30 31  1  0
 31 32  1  0
 32 33  1  0
 32 37  1  0
 32 81  1  6
 33 34  1  0
 33 82  1  0
 33 83  1  0
 34 35  1  0
 34 84  1  0
 34 85  1  0
 35 36  1  0
 35 86  1  0
 35 87  1  0
 36 37  1  0
 36 88  1  0
 36 89  1  0
 38 39  1  0
 38 90  1  0
 38 91  1  0
 39 40  1  0
 39 92  1  1
 40 41  1  0
 41 42  1  0
 41 93  1  0
 41 94  1  0
 42 43  1  0
 42 95  1  0
 42 96  1  0
 43 44  2  0
 43 48  1  0
 44 45  1  0
 44 97  1  0
 45 46  2  0
 45 98  1  0
 46 47  1  0
 47 48  2  0
 47 99  1  0
 48100  1  0
 49101  1  1
M  END

