
     RDKit          3D

 52 53  0  0  0  0  0  0  0  0999 V2000
   10.1037    4.9704    0.9157 C   0  0  0  0  0  0  0  0  0  0  0  0
    9.2644    3.6924    0.9461 C   0  0  0  0  0  0  0  0  0  0  0  0
   10.0943    2.4194    1.1391 C   0  0  0  0  0  0  0  0  0  0  0  0
    9.2614    1.1349    1.1713 C   0  0  0  0  0  0  0  0  0  0  0  0
   10.0956   -0.1362    1.3572 C   0  0  0  0  0  0  0  0  0  0  0  0
    9.2562   -1.4163    1.3933 C   0  0  0  0  0  0  0  0  0  0  0  0
   10.1009   -2.6677    1.5660 C   0  0  0  0  0  0  0  0  0  0  0  0
    9.2308   -3.7962    1.5913 O   0  0  0  0  0  0  0  0  0  0  0  0
    9.7309   -5.0332    1.7583 C   0  0  0  0  0  0  0  0  0  0  0  0
   11.0926   -5.3398    1.8793 C   0  0  0  0  0  0  0  0  0  0  0  0
   11.4944   -6.6715    2.0306 C   0  0  0  0  0  0  0  0  0  0  0  0
   10.5442   -7.7062    2.1119 C   0  0  0  0  0  0  0  0  0  0  0  0
   10.9248   -9.0458    2.3167 N   0  0  0  0  0  0  0  0  0  0  0  0
   11.7978   -9.4553    3.2300 C   0  0  0  0  0  0  0  0  0  0  0  0
   12.5261   -8.3033    4.3257 S   0  0  0  0  0  0  0  0  0  0  0  0
   12.0869  -10.7617    3.3104 N   0  0  0  0  0  0  0  0  0  0  0  0
   11.4879  -11.8149    2.4770 C   0  0  0  0  0  0  0  0  0  0  0  0
   10.6509  -11.4388    1.6174 O   0  0  0  0  0  0  0  0  0  0  0  0
   11.9089  -13.1457    2.7213 C   0  0  0  0  0  0  0  0  0  0  0  0
   12.8766  -13.5481    3.7081 C   0  0  0  0  0  0  0  0  0  0  0  0
   13.2241  -14.8780    3.8756 C   0  0  0  0  0  0  0  0  0  0  0  0
   12.6327  -15.8721    3.0769 C   0  0  0  0  0  0  0  0  0  0  0  0
   13.0771  -17.5523    3.2954 Cl  0  0  0  0  0  0  0  0  0  0  0  0
   11.6803  -15.5146    2.0965 C   0  0  0  0  0  0  0  0  0  0  0  0
   11.3284  -14.1932    1.9219 C   0  0  0  0  0  0  0  0  0  0  0  0
    9.1787   -7.3963    1.9585 C   0  0  0  0  0  0  0  0  0  0  0  0
    8.7795   -6.0827    1.7855 C   0  0  0  0  0  0  0  0  0  0  0  0
    9.4752    5.8641    0.7751 H   0  0  0  0  0  0  0  0  0  0  0  0
   10.8385    4.9482    0.0933 H   0  0  0  0  0  0  0  0  0  0  0  0
   10.6659    5.1038    1.8552 H   0  0  0  0  0  0  0  0  0  0  0  0
    8.6852    3.6086    0.0084 H   0  0  0  0  0  0  0  0  0  0  0  0
    8.5143    3.7624    1.7550 H   0  0  0  0  0  0  0  0  0  0  0  0
   10.6748    2.5018    2.0771 H   0  0  0  0  0  0  0  0  0  0  0  0
   10.8445    2.3478    0.3293 H   0  0  0  0  0  0  0  0  0  0  0  0
    8.6781    1.0530    0.2356 H   0  0  0  0  0  0  0  0  0  0  0  0
    8.5151    1.2026    1.9843 H   0  0  0  0  0  0  0  0  0  0  0  0
   10.6817   -0.0530    2.2912 H   0  0  0  0  0  0  0  0  0  0  0  0
   10.8387   -0.2050    0.5410 H   0  0  0  0  0  0  0  0  0  0  0  0
    8.6702   -1.5143    0.4634 H   0  0  0  0  0  0  0  0  0  0  0  0
    8.5252   -1.3696    2.2186 H   0  0  0  0  0  0  0  0  0  0  0  0
   10.6813   -2.6249    2.5066 H   0  0  0  0  0  0  0  0  0  0  0  0
   10.8214   -2.7720    0.7333 H   0  0  0  0  0  0  0  0  0  0  0  0
   11.8532   -4.5622    1.8225 H   0  0  0  0  0  0  0  0  0  0  0  0
   12.5585   -6.9138    2.0270 H   0  0  0  0  0  0  0  0  0  0  0  0
   10.5453   -9.8829    1.7740 H   0  0  0  0  0  0  0  0  0  0  0  0
   12.7611  -11.0453    4.0078 H   0  0  0  0  0  0  0  0  0  0  0  0
   13.3717  -12.8209    4.3564 H   0  0  0  0  0  0  0  0  0  0  0  0
   13.9605  -15.1631    4.6293 H   0  0  0  0  0  0  0  0  0  0  0  0
   11.2279  -16.2940    1.4804 H   0  0  0  0  0  0  0  0  0  0  0  0
   10.5943  -13.9133    1.1656 H   0  0  0  0  0  0  0  0  0  0  0  0
    8.4381   -8.1974    2.0007 H   0  0  0  0  0  0  0  0  0  0  0  0
    7.7250   -5.8222    1.6791 H   0  0  0  0  0  0  0  0  0  0  0  0
  1  2  1  0
  1 28  1  0
  1 29  1  0
  1 30  1  0
  2  3  1  0
  2 31  1  0
  2 32  1  0
  3  4  1  0
  3 33  1  0
  3 34  1  0
  4  5  1  0
  4 35  1  0
  4 36  1  0
  5  6  1  0
  5 37  1  0
  5 38  1  0
  6  7  1  0
  6 39  1  0
  6 40  1  0
  7  8  1  0
  7 41  1  0
  7 42  1  0
  8  9  1  0
  9 10  2  0
  9 27  1  0
 10 11  1  0
 10 43  1  0
 11 12  2  0
 11 44  1  0
 12 13  1  0
 12 26  1  0
 13 14  1  0
 13 45  1  0
 14 15  2  0
 14 16  1  0
 16 17  1  0
 16 46  1  0
 17 18  2  0
 17 19  1  0
 19 20  2  0
 19 25  1  0
 20 21  1  0
 20 47  1  0
 21 22  2  0
 21 48  1  0
 22 23  1  0
 22 24  1  0
 24 25  2  0
 24 49  1  0
 25 50  1  0
 26 27  2  0
 26 51  1  0
 27 52  1  0
M  END

