
     RDKit          3D

 66 70  0  0  0  0  0  0  0  0999 V2000
    1.3754   -0.2168    0.3184 C   0  0  0  0  0  0  0  0  0  0  0  0
    2.8273   -0.0949   -0.0836 C   0  0  0  0  0  0  0  0  0  0  0  0
    3.4087    1.1631   -0.2011 C   0  0  0  0  0  0  0  0  0  0  0  0
    4.7735    1.3576   -0.5772 C   0  0  0  0  0  0  0  0  0  0  0  0
    5.3132    2.6828   -0.6796 C   0  0  0  0  0  0  0  0  0  0  0  0
    6.6544    2.9864   -1.0352 C   0  0  0  0  0  0  0  0  0  0  0  0
    7.0753    4.2955   -1.1088 C   0  0  0  0  0  0  0  0  0  0  0  0
    6.2271    5.3503   -0.8458 N   0  0  0  0  0  0  0  0  0  0  0  0
    5.0211    4.9593   -0.5282 C   0  0  0  0  0  0  0  0  0  0  0  0
    4.0597    6.0324   -0.2356 N   0  0  0  0  0  0  0  0  0  0  0  0
    4.2226    7.3540   -0.2596 C   0  0  0  0  0  0  0  0  0  0  0  0
    5.3944    8.1547   -0.5644 C   0  0  0  0  0  0  0  0  0  0  0  0
    5.1202    9.4328   -0.4709 N   0  0  0  0  0  0  0  0  0  0  0  0
    3.8030    9.5279   -0.1132 N   0  0  0  0  0  0  0  0  0  0  0  0
    3.1961   10.8310    0.0654 C   0  0  1  0  0  0  0  0  0  0  0  0
    3.9145   11.8609    0.9731 C   0  0  0  0  0  0  0  0  0  0  0  0
    3.5962   12.8951   -0.0273 N   0  0  0  0  0  0  0  0  0  0  0  0
    3.3534   11.8782   -1.0658 C   0  0  0  0  0  0  0  0  0  0  0  0
    3.2209    8.3290    0.0265 C   0  0  0  0  0  0  0  0  0  0  0  0
    4.4746    3.7812   -0.4143 N   0  0  0  0  0  0  0  0  0  0  0  0
    5.5322    0.1780   -0.8395 C   0  0  0  0  0  0  0  0  0  0  0  0
    4.9548   -1.0755   -0.7238 C   0  0  0  0  0  0  0  0  0  0  0  0
    3.6065   -1.2551   -0.3469 C   0  0  0  0  0  0  0  0  0  0  0  0
    3.0416   -2.6474   -0.2164 C   0  0  0  0  0  0  0  0  0  0  0  0
    2.8977   -3.0594    1.1826 N   0  0  0  0  0  0  0  0  0  0  0  0
    1.9234   -3.9108    1.6077 C   0  0  0  0  0  0  0  0  0  0  0  0
    1.0936   -4.4101    0.8594 O   0  0  0  0  0  0  0  0  0  0  0  0
    1.8982   -4.2201    3.0698 C   0  0  0  0  0  0  0  0  0  0  0  0
    1.0270   -5.1057    3.6609 C   0  0  0  0  0  0  0  0  0  0  0  0
    1.1508   -5.2692    5.0091 N   0  0  0  0  0  0  0  0  0  0  0  0
    2.1033   -4.5335    5.5099 C   0  0  0  0  0  0  0  0  0  0  0  0
    2.4540   -4.5004    6.9912 C   0  0  1  0  0  0  0  0  0  0  0  0
    1.2249   -3.9632    7.7591 C   0  0  0  0  0  0  0  0  0  0  0  0
    2.7573   -5.9454    7.4447 C   0  0  0  0  0  0  0  0  0  0  0  0
    3.6713   -3.6022    7.2660 C   0  0  0  0  0  0  0  0  0  0  0  0
    2.9345   -3.5555    4.3044 S   0  0  0  0  0  0  0  0  0  0  0  0
    0.9153    0.7740    0.4463 H   0  0  0  0  0  0  0  0  0  0  0  0
    1.2595   -0.7712    1.2641 H   0  0  0  0  0  0  0  0  0  0  0  0
    0.7872   -0.7664   -0.4359 H   0  0  0  0  0  0  0  0  0  0  0  0
    2.8088    2.0517   -0.0027 H   0  0  0  0  0  0  0  0  0  0  0  0
    7.3658    2.1886   -1.2531 H   0  0  0  0  0  0  0  0  0  0  0  0
    8.1024    4.5513   -1.3801 H   0  0  0  0  0  0  0  0  0  0  0  0
    3.1474    5.6512    0.0032 H   0  0  0  0  0  0  0  0  0  0  0  0
    6.3731    7.7717   -0.8348 H   0  0  0  0  0  0  0  0  0  0  0  0
    2.1495   10.6669    0.3519 H   0  0  0  0  0  0  0  0  0  0  0  0
    4.9866   11.6143    1.0730 H   0  0  0  0  0  0  0  0  0  0  0  0
    3.4825   12.0214    1.9751 H   0  0  0  0  0  0  0  0  0  0  0  0
    4.3335   13.5685   -0.2247 H   0  0  0  0  0  0  0  0  0  0  0  0
    4.2226   11.6375   -1.7036 H   0  0  0  0  0  0  0  0  0  0  0  0
    2.4705   12.0525   -1.7034 H   0  0  0  0  0  0  0  0  0  0  0  0
    2.1772    8.2081    0.3061 H   0  0  0  0  0  0  0  0  0  0  0  0
    6.5792    0.2461   -1.1411 H   0  0  0  0  0  0  0  0  0  0  0  0
    5.5629   -1.9604   -0.9391 H   0  0  0  0  0  0  0  0  0  0  0  0
    3.6950   -3.3621   -0.7492 H   0  0  0  0  0  0  0  0  0  0  0  0
    2.0432   -2.7463   -0.6680 H   0  0  0  0  0  0  0  0  0  0  0  0
    3.5837   -2.7032    1.8382 H   0  0  0  0  0  0  0  0  0  0  0  0
    0.2736   -5.6555    3.0953 H   0  0  0  0  0  0  0  0  0  0  0  0
    0.3407   -4.5842    7.5550 H   0  0  0  0  0  0  0  0  0  0  0  0
    0.9923   -2.9288    7.4599 H   0  0  0  0  0  0  0  0  0  0  0  0
    1.4192   -3.9714    8.8440 H   0  0  0  0  0  0  0  0  0  0  0  0
    1.9050   -6.6051    7.2283 H   0  0  0  0  0  0  0  0  0  0  0  0
    2.9584   -5.9696    8.5280 H   0  0  0  0  0  0  0  0  0  0  0  0
    3.6400   -6.3472    6.9223 H   0  0  0  0  0  0  0  0  0  0  0  0
    3.4847   -2.5590    6.9638 H   0  0  0  0  0  0  0  0  0  0  0  0
    4.5681   -3.9589    6.7346 H   0  0  0  0  0  0  0  0  0  0  0  0
    3.9003   -3.5994    8.3431 H   0  0  0  0  0  0  0  0  0  0  0  0
  1  2  1  0
  1 37  1  0
  1 38  1  0
  1 39  1  0
  2  3  2  0
  2 23  1  0
  3  4  1  0
  3 40  1  0
  4  5  1  0
  4 21  2  0
  5  6  2  0
  5 20  1  0
  6  7  1  0
  6 41  1  0
  7  8  2  0
  7 42  1  0
  8  9  1  0
  9 10  1  0
  9 20  2  0
 10 11  1  0
 10 43  1  0
 11 12  1  0
 11 19  2  0
 12 13  2  0
 12 44  1  0
 13 14  1  0
 14 15  1  0
 14 19  1  0
 15 16  1  0
 15 18  1  0
 15 45  1  1
 16 17  1  0
 16 46  1  0
 16 47  1  0
 17 18  1  0
 17 48  1  0
 18 49  1  0
 18 50  1  0
 19 51  1  0
 21 22  1  0
 21 52  1  0
 22 23  2  0
 22 53  1  0
 23 24  1  0
 24 25  1  0
 24 54  1  0
 24 55  1  0
 25 26  1  0
 25 56  1  0
 26 27  2  0
 26 28  1  0
 28 29  2  0
 28 36  1  0
 29 30  1  0
 29 57  1  0
 30 31  2  0
 31 32  1  0
 31 36  1  0
 32 33  1  1
 32 34  1  0
 32 35  1  0
 33 58  1  0
 33 59  1  0
 33 60  1  0
 34 61  1  0
 34 62  1  0
 34 63  1  0
 35 64  1  0
 35 65  1  0
 35 66  1  0
M  END

