
     RDKit          3D

 58 61  0  0  0  0  0  0  0  0999 V2000
    3.3864    2.0179   -1.3367 C   0  0  0  0  0  0  0  0  0  0  0  0
    2.9946    0.7971   -0.9418 C   0  0  0  0  0  0  0  0  0  0  0  0
    3.5963   -0.0468    0.1052 C   0  0  0  0  0  0  0  0  0  0  0  0
    3.0270   -1.3026    0.3868 C   0  0  0  0  0  0  0  0  0  0  0  0
    3.5568   -2.1347    1.3731 C   0  0  0  0  0  0  0  0  0  0  0  0
    4.6834   -1.7450    2.1087 C   0  0  0  0  0  0  0  0  0  0  0  0
    5.2760   -2.6839    3.1325 C   0  0  0  0  0  0  0  0  0  0  0  0
    5.9913   -1.9469    4.1043 O   0  0  0  0  0  0  0  0  0  0  0  0
    6.6195   -2.6006    5.1147 C   0  0  0  0  0  0  0  0  0  0  0  0
    7.3169   -1.7934    6.0347 C   0  0  0  0  0  0  0  0  0  0  0  0
    7.9758   -2.3864    7.1000 C   0  0  0  0  0  0  0  0  0  0  0  0
    7.9761   -3.7839    7.3004 C   0  0  0  0  0  0  0  0  0  0  0  0
    8.6525   -4.4006    8.4462 C   0  0  0  0  0  0  0  0  0  0  0  0
    8.7692   -5.7342    8.5366 N   0  0  0  0  0  0  0  0  0  0  0  0
    9.4230   -5.9889    9.6807 N   0  0  0  0  0  0  0  0  0  0  0  0
    9.6350   -6.9468    9.9310 H   0  0  0  0  0  0  0  0  0  0  0  0
    9.7596   -4.8654   10.3659 C   0  0  0  0  0  0  0  0  0  0  0  0
   10.4959   -4.8569   11.6630 C   0  0  0  0  0  0  0  0  0  0  0  0
    9.2665   -3.8174    9.5995 C   0  0  0  0  0  0  0  0  0  0  0  0
    9.4277   -2.4903    9.9017 O   0  0  0  0  0  0  0  0  0  0  0  0
    8.4986   -1.8301   10.6668 C   0  0  0  0  0  0  0  0  0  0  0  0
    7.2927   -2.4028   11.0905 C   0  0  0  0  0  0  0  0  0  0  0  0
    6.4096   -1.6453   11.8607 C   0  0  0  0  0  0  0  0  0  0  0  0
    6.7163   -0.3228   12.2139 C   0  0  0  0  0  0  0  0  0  0  0  0
    5.8067    0.5232   13.0345 C   0  0  0  0  0  0  0  0  0  0  0  0
    6.0374    1.6665   13.3587 O   0  0  0  0  0  0  0  0  0  0  0  0
    4.6764   -0.1233   13.3895 O   0  0  0  0  0  0  0  0  0  0  0  0
    3.7474    0.6206   14.1738 C   0  0  0  0  0  0  0  0  0  0  0  0
    7.9299    0.2370   11.7769 C   0  0  0  0  0  0  0  0  0  0  0  0
    8.8168   -0.5067   11.0087 C   0  0  0  0  0  0  0  0  0  0  0  0
    7.2859   -4.5875    6.3514 C   0  0  0  0  0  0  0  0  0  0  0  0
    7.2414   -5.9263    6.4270 O   0  0  0  0  0  0  0  0  0  0  0  0
    6.6087   -3.9879    5.2741 C   0  0  0  0  0  0  0  0  0  0  0  0
    5.2592   -0.4942    1.8366 C   0  0  0  0  0  0  0  0  0  0  0  0
    4.7244    0.3381    0.8565 C   0  0  0  0  0  0  0  0  0  0  0  0
    2.8547    2.5466   -2.1316 H   0  0  0  0  0  0  0  0  0  0  0  0
    4.2404    2.5366   -0.8920 H   0  0  0  0  0  0  0  0  0  0  0  0
    2.1262    0.3509   -1.4410 H   0  0  0  0  0  0  0  0  0  0  0  0
    2.1460   -1.6270   -0.1744 H   0  0  0  0  0  0  0  0  0  0  0  0
    3.0828   -3.1003    1.5742 H   0  0  0  0  0  0  0  0  0  0  0  0
    5.9561   -3.4041    2.6347 H   0  0  0  0  0  0  0  0  0  0  0  0
    4.4740   -3.2775    3.6094 H   0  0  0  0  0  0  0  0  0  0  0  0
    7.3233   -0.7122    5.8905 H   0  0  0  0  0  0  0  0  0  0  0  0
    8.5235   -1.7551    7.7996 H   0  0  0  0  0  0  0  0  0  0  0  0
   11.3450   -5.5589   11.6509 H   0  0  0  0  0  0  0  0  0  0  0  0
    9.8430   -5.1303   12.5093 H   0  0  0  0  0  0  0  0  0  0  0  0
   10.8894   -3.8495   11.8565 H   0  0  0  0  0  0  0  0  0  0  0  0
    7.0441   -3.4272   10.8115 H   0  0  0  0  0  0  0  0  0  0  0  0
    5.4660   -2.0817   12.1902 H   0  0  0  0  0  0  0  0  0  0  0  0
    2.9012   -0.0507   14.3661 H   0  0  0  0  0  0  0  0  0  0  0  0
    3.4073    1.5176   13.6340 H   0  0  0  0  0  0  0  0  0  0  0  0
    4.2030    0.9419   15.1231 H   0  0  0  0  0  0  0  0  0  0  0  0
    8.1585    1.2675   12.0554 H   0  0  0  0  0  0  0  0  0  0  0  0
    9.7634   -0.0877   10.6618 H   0  0  0  0  0  0  0  0  0  0  0  0
    7.7904   -6.2175    7.1945 H   0  0  0  0  0  0  0  0  0  0  0  0
    6.0935   -4.6553    4.5852 H   0  0  0  0  0  0  0  0  0  0  0  0
    6.1295   -0.1738    2.4115 H   0  0  0  0  0  0  0  0  0  0  0  0
    5.1948    1.3066    0.6725 H   0  0  0  0  0  0  0  0  0  0  0  0
  1  2  2  0
  1 36  1  0
  1 37  1  0
  2  3  1  0
  2 38  1  0
  3  4  2  0
  3 35  1  0
  4  5  1  0
  4 39  1  0
  5  6  2  0
  5 40  1  0
  6  7  1  0
  6 34  1  0
  7  8  1  0
  7 41  1  0
  7 42  1  0
  8  9  1  0
  9 10  2  0
  9 33  1  0
 10 11  1  0
 10 43  1  0
 11 12  2  0
 11 44  1  0
 12 13  1  0
 12 31  1  0
 13 14  2  0
 13 19  1  0
 14 15  1  0
 15 16  1  0
 15 17  1  0
 17 18  1  0
 17 19  2  0
 18 45  1  0
 18 46  1  0
 18 47  1  0
 19 20  1  0
 20 21  1  0
 21 22  2  0
 21 30  1  0
 22 23  1  0
 22 48  1  0
 23 24  2  0
 23 49  1  0
 24 25  1  0
 24 29  1  0
 25 26  2  0
 25 27  1  0
 27 28  1  0
 28 50  1  0
 28 51  1  0
 28 52  1  0
 29 30  2  0
 29 53  1  0
 30 54  1  0
 31 32  1  0
 31 33  2  0
 32 55  1  0
 33 56  1  0
 34 35  2  0
 34 57  1  0
 35 58  1  0
M  END

