
     RDKit          3D

 85 86  0  0  0  0  0  0  0  0999 V2000
    0.8031    0.3242    0.0046 C   0  0  0  0  0  0  0  0  0  0  0  0
    2.3310    0.2581   -0.0114 C   0  0  0  0  0  0  0  0  0  0  0  0
    2.8906   -0.7801   -0.9889 C   0  0  0  0  0  0  0  0  0  0  0  0
    4.4201   -0.8539   -1.0102 C   0  0  0  0  0  0  0  0  0  0  0  0
    4.9797   -1.8931   -1.9862 C   0  0  0  0  0  0  0  0  0  0  0  0
    6.5093   -1.9678   -2.0044 C   0  0  0  0  0  0  0  0  0  0  0  0
    7.0701   -3.0090   -2.9777 C   0  0  0  0  0  0  0  0  0  0  0  0
    8.5997   -3.0844   -2.9930 C   0  0  0  0  0  0  0  0  0  0  0  0
    9.1618   -4.1279   -3.9630 C   0  0  0  0  0  0  0  0  0  0  0  0
   10.6915   -4.2033   -3.9761 C   0  0  0  0  0  0  0  0  0  0  0  0
   11.2551   -5.2492   -4.9426 C   0  0  0  0  0  0  0  0  0  0  0  0
   12.7848   -5.3232   -4.9548 C   0  0  0  0  0  0  0  0  0  0  0  0
   13.3500   -6.3719   -5.9174 C   0  0  0  0  0  0  0  0  0  0  0  0
   14.8799   -6.4423   -5.9312 C   0  0  0  0  0  0  0  0  0  0  0  0
   15.4469   -7.4950   -6.8884 C   0  0  0  0  0  0  0  0  0  0  0  0
   16.9770   -7.5589   -6.9081 C   0  0  0  0  0  0  0  0  0  0  0  0
   17.5431   -8.6157   -7.8607 C   0  0  0  0  0  0  0  0  0  0  0  0
   19.0819   -8.6681   -7.8692 C   0  0  0  0  0  0  0  0  0  0  0  0
   19.6654   -9.7132   -8.7828 C   0  0  0  0  0  0  0  0  0  0  0  0
   20.2765  -10.8726   -8.3166 C   0  0  0  0  0  0  0  0  0  0  0  0
   20.7247  -11.6842   -9.3996 C   0  0  0  0  0  0  0  0  0  0  0  0
   20.3571  -11.0713  -10.5867 C   0  0  0  0  0  0  0  0  0  0  0  0
   20.6482  -11.3189  -11.9705 C   0  0  0  0  0  0  0  0  0  0  0  0
   19.7143  -10.7435  -12.8017 C   0  0  0  0  0  0  0  0  0  0  0  0
   20.0947   -9.4753  -13.4296 C   0  0  0  0  0  0  0  0  0  0  0  0
   20.7127   -9.3362  -14.8002 C   0  0  1  0  0  0  0  0  0  0  0  0
   19.7196   -9.8045  -15.8829 C   0  0  0  0  0  0  0  0  0  0  0  0
   21.2701   -7.9444  -15.1107 C   0  0  0  0  0  0  0  0  0  0  0  0
   19.8701   -8.4675  -12.5265 C   0  0  0  0  0  0  0  0  0  0  0  0
   19.5223   -8.6545  -11.1068 C   0  0  0  0  0  0  0  0  0  0  0  0
   19.0330   -7.5591  -10.4762 O   0  0  0  0  0  0  0  0  0  0  0  0
   18.6353   -6.3846  -11.1563 C   0  0  0  0  0  0  0  0  0  0  0  0
   19.7213   -9.7574  -10.2394 C   0  0  0  0  0  0  0  0  0  0  0  0
    0.4366    1.0794    0.7183 H   0  0  0  0  0  0  0  0  0  0  0  0
    0.3627   -0.6456    0.2915 H   0  0  0  0  0  0  0  0  0  0  0  0
    0.4025    0.5846   -0.9897 H   0  0  0  0  0  0  0  0  0  0  0  0
    2.7012    0.0345    1.0059 H   0  0  0  0  0  0  0  0  0  0  0  0
    2.7403    1.2530   -0.2655 H   0  0  0  0  0  0  0  0  0  0  0  0
    2.5213   -0.5565   -2.0075 H   0  0  0  0  0  0  0  0  0  0  0  0
    2.4807   -1.7760   -0.7358 H   0  0  0  0  0  0  0  0  0  0  0  0
    4.7884   -1.0763    0.0088 H   0  0  0  0  0  0  0  0  0  0  0  0
    4.8294    0.1419   -1.2638 H   0  0  0  0  0  0  0  0  0  0  0  0
    4.6131   -1.6704   -3.0057 H   0  0  0  0  0  0  0  0  0  0  0  0
    4.5694   -2.8887   -1.7333 H   0  0  0  0  0  0  0  0  0  0  0  0
    6.8756   -2.1888   -0.9844 H   0  0  0  0  0  0  0  0  0  0  0  0
    6.9197   -0.9726   -2.2587 H   0  0  0  0  0  0  0  0  0  0  0  0
    6.7053   -2.7878   -3.9982 H   0  0  0  0  0  0  0  0  0  0  0  0
    6.6588   -4.0038   -2.7239 H   0  0  0  0  0  0  0  0  0  0  0  0
    8.9640   -3.3034   -1.9719 H   0  0  0  0  0  0  0  0  0  0  0  0
    9.0110   -2.0899   -3.2486 H   0  0  0  0  0  0  0  0  0  0  0  0
    8.7985   -3.9092   -4.9846 H   0  0  0  0  0  0  0  0  0  0  0  0
    8.7502   -5.1222   -3.7074 H   0  0  0  0  0  0  0  0  0  0  0  0
   11.0545   -4.4196   -2.9539 H   0  0  0  0  0  0  0  0  0  0  0  0
   11.1030   -3.2094   -4.2336 H   0  0  0  0  0  0  0  0  0  0  0  0
   10.8920   -5.0340   -5.9650 H   0  0  0  0  0  0  0  0  0  0  0  0
   10.8443   -6.2431   -4.6842 H   0  0  0  0  0  0  0  0  0  0  0  0
   13.1477   -5.5355   -3.9318 H   0  0  0  0  0  0  0  0  0  0  0  0
   13.1954   -4.3297   -5.2156 H   0  0  0  0  0  0  0  0  0  0  0  0
   12.9851   -6.1621   -6.9403 H   0  0  0  0  0  0  0  0  0  0  0  0
   12.9419   -7.3656   -5.6543 H   0  0  0  0  0  0  0  0  0  0  0  0
   15.2447   -6.6478   -4.9074 H   0  0  0  0  0  0  0  0  0  0  0  0
   15.2876   -5.4490   -6.1977 H   0  0  0  0  0  0  0  0  0  0  0  0
   15.0769   -7.2949   -7.9116 H   0  0  0  0  0  0  0  0  0  0  0  0
   15.0444   -8.4887   -6.6170 H   0  0  0  0  0  0  0  0  0  0  0  0
   17.3466   -7.7532   -5.8837 H   0  0  0  0  0  0  0  0  0  0  0  0
   17.3793   -6.5656   -7.1838 H   0  0  0  0  0  0  0  0  0  0  0  0
   17.1824   -8.4201   -8.8847 H   0  0  0  0  0  0  0  0  0  0  0  0
   17.1523   -9.6111   -7.5835 H   0  0  0  0  0  0  0  0  0  0  0  0
   19.4301   -8.8839   -6.8441 H   0  0  0  0  0  0  0  0  0  0  0  0
   19.4685   -7.6687   -8.1256 H   0  0  0  0  0  0  0  0  0  0  0  0
   20.3876  -11.1221   -7.2591 H   0  0  0  0  0  0  0  0  0  0  0  0
   21.2284  -12.6477   -9.3124 H   0  0  0  0  0  0  0  0  0  0  0  0
   21.6705  -11.5578  -12.2952 H   0  0  0  0  0  0  0  0  0  0  0  0
   18.7250  -10.6711  -12.3342 H   0  0  0  0  0  0  0  0  0  0  0  0
   21.5559  -10.0550  -14.8121 H   0  0  0  0  0  0  0  0  0  0  0  0
   18.8530   -9.1251  -15.9395 H   0  0  0  0  0  0  0  0  0  0  0  0
   19.3447  -10.8158  -15.6647 H   0  0  0  0  0  0  0  0  0  0  0  0
   20.2038   -9.8211  -16.8722 H   0  0  0  0  0  0  0  0  0  0  0  0
   20.4669   -7.1899  -15.1501 H   0  0  0  0  0  0  0  0  0  0  0  0
   21.7692   -7.9407  -16.0923 H   0  0  0  0  0  0  0  0  0  0  0  0
   22.0046   -7.6205  -14.3573 H   0  0  0  0  0  0  0  0  0  0  0  0
   20.0273   -7.4317  -12.8316 H   0  0  0  0  0  0  0  0  0  0  0  0
   18.0766   -5.7874  -10.4227 H   0  0  0  0  0  0  0  0  0  0  0  0
   17.9819   -6.6086  -12.0155 H   0  0  0  0  0  0  0  0  0  0  0  0
   19.4997   -5.7929  -11.5030 H   0  0  0  0  0  0  0  0  0  0  0  0
  1  2  1  0
  1 34  1  0
  1 35  1  0
  1 36  1  0
  2  3  1  0
  2 37  1  0
  2 38  1  0
  3  4  1  0
  3 39  1  0
  3 40  1  0
  4  5  1  0
  4 41  1  0
  4 42  1  0
  5  6  1  0
  5 43  1  0
  5 44  1  0
  6  7  1  0
  6 45  1  0
  6 46  1  0
  7  8  1  0
  7 47  1  0
  7 48  1  0
  8  9  1  0
  8 49  1  0
  8 50  1  0
  9 10  1  0
  9 51  1  0
  9 52  1  0
 10 11  1  0
 10 53  1  0
 10 54  1  0
 11 12  1  0
 11 55  1  0
 11 56  1  0
 12 13  1  0
 12 57  1  0
 12 58  1  0
 13 14  1  0
 13 59  1  0
 13 60  1  0
 14 15  1  0
 14 61  1  0
 14 62  1  0
 15 16  1  0
 15 63  1  0
 15 64  1  0
 16 17  1  0
 16 65  1  0
 16 66  1  0
 17 18  1  0
 17 67  1  0
 17 68  1  0
 18 19  1  0
 18 69  1  0
 18 70  1  0
 19 20  2  0
 19 33  1  0
 20 21  1  0
 20 71  1  0
 21 22  2  0
 21 72  1  0
 22 23  1  0
 22 33  1  0
 23 24  2  0
 23 73  1  0
 24 25  1  0
 24 74  1  0
 25 26  1  0
 25 29  2  0
 26 27  1  0
 26 28  1  0
 26 75  1  1
 27 76  1  0
 27 77  1  0
 27 78  1  0
 28 79  1  0
 28 80  1  0
 28 81  1  0
 29 30  1  0
 29 82  1  0
 30 31  1  0
 30 33  2  0
 31 32  1  0
 32 83  1  0
 32 84  1  0
 32 85  1  0
M  END

