
     RDKit          3D

 45 46  0  0  0  0  0  0  0  0999 V2000
    3.6103    0.2622   -2.9891 C   0  0  0  0  0  0  0  0  0  0  0  0
    2.7154    1.1558   -1.7002 S   0  0  1  0  0  0  0  0  0  0  0  0
    2.7304    2.5826   -2.0456 O   0  0  0  0  0  0  0  0  0  0  0  0
    1.4549    0.4494   -1.4432 O   0  0  0  0  0  0  0  0  0  0  0  0
    3.7447    0.9529   -0.1749 C   0  0  0  0  0  0  0  0  0  0  0  0
    5.1167    1.4878   -0.2929 C   0  0  0  0  0  0  0  0  0  0  0  0
    5.6232    2.7626   -0.3443 C   0  0  0  0  0  0  0  0  0  0  0  0
    7.0281    2.6339   -0.5520 C   0  0  0  0  0  0  0  0  0  0  0  0
    7.2877    1.2892   -0.6186 C   0  0  0  0  0  0  0  0  0  0  0  0
    8.5701    0.5709   -0.8055 C   0  0  0  0  0  0  0  0  0  0  0  0
    9.6075    1.1887   -0.9772 O   0  0  0  0  0  0  0  0  0  0  0  0
    8.4530   -0.8003   -0.7654 N   0  0  0  0  0  0  0  0  0  0  0  0
    9.4545   -1.7755   -0.9149 C   0  0  0  0  0  0  0  0  0  0  0  0
   10.8029   -1.4658   -1.1673 C   0  0  0  0  0  0  0  0  0  0  0  0
   11.7249   -2.5063   -1.2989 C   0  0  0  0  0  0  0  0  0  0  0  0
   11.3384   -3.8443   -1.1955 C   0  0  0  0  0  0  0  0  0  0  0  0
    9.9953   -4.1595   -0.9426 C   0  0  0  0  0  0  0  0  0  0  0  0
    9.5289   -5.6036   -0.8801 C   0  0  0  0  0  0  0  0  0  0  0  0
   10.4934   -6.5112   -0.3881 O   0  0  0  0  0  0  0  0  0  0  0  0
   10.7842   -6.3977    0.9808 C   0  0  0  0  0  0  0  0  0  0  0  0
   11.7634   -7.5016    1.3427 C   0  0  1  0  0  0  0  0  0  0  0  0
   12.1909   -7.2950    2.6139 F   0  0  0  0  0  0  0  0  0  0  0  0
   11.1458   -8.7135    1.3061 F   0  0  0  0  0  0  0  0  0  0  0  0
   12.9751   -7.5910    0.4020 C   0  0  1  0  0  0  0  0  0  0  0  0
   13.5579   -6.3662    0.3108 F   0  0  0  0  0  0  0  0  0  0  0  0
   13.8759   -8.4571    0.9064 F   0  0  0  0  0  0  0  0  0  0  0  0
    9.0687   -3.1237   -0.7966 C   0  0  0  0  0  0  0  0  0  0  0  0
    6.1256    0.5844   -0.4678 O   0  0  0  0  0  0  0  0  0  0  0  0
    2.9976    0.3899   -3.8923 H   0  0  0  0  0  0  0  0  0  0  0  0
    3.6749   -0.7994   -2.7174 H   0  0  0  0  0  0  0  0  0  0  0  0
    4.5999    0.7149   -3.1307 H   0  0  0  0  0  0  0  0  0  0  0  0
    3.7292   -0.1152    0.0813 H   0  0  0  0  0  0  0  0  0  0  0  0
    3.1388    1.5056    0.5587 H   0  0  0  0  0  0  0  0  0  0  0  0
    5.0423    3.6781   -0.2613 H   0  0  0  0  0  0  0  0  0  0  0  0
    7.7727    3.4209   -0.6411 H   0  0  0  0  0  0  0  0  0  0  0  0
    7.5174   -1.1542   -0.5986 H   0  0  0  0  0  0  0  0  0  0  0  0
   11.1070   -0.4252   -1.2487 H   0  0  0  0  0  0  0  0  0  0  0  0
   12.7732   -2.2612   -1.4884 H   0  0  0  0  0  0  0  0  0  0  0  0
   12.0755   -4.6435   -1.2921 H   0  0  0  0  0  0  0  0  0  0  0  0
    9.2928   -5.9618   -1.8962 H   0  0  0  0  0  0  0  0  0  0  0  0
    8.5961   -5.6734   -0.2858 H   0  0  0  0  0  0  0  0  0  0  0  0
    9.8823   -6.5323    1.6095 H   0  0  0  0  0  0  0  0  0  0  0  0
   11.2476   -5.4276    1.2337 H   0  0  0  0  0  0  0  0  0  0  0  0
   12.6611   -7.9189   -0.6012 H   0  0  0  0  0  0  0  0  0  0  0  0
    8.0208   -3.3637   -0.5854 H   0  0  0  0  0  0  0  0  0  0  0  0
  2  1  1  6
  1 29  1  0
  1 30  1  0
  1 31  1  0
  2  3  2  0
  2  4  2  0
  2  5  1  0
  5  6  1  0
  5 32  1  0
  5 33  1  0
  6  7  2  0
  6 28  1  0
  7  8  1  0
  7 34  1  0
  8  9  2  0
  8 35  1  0
  9 10  1  0
  9 28  1  0
 10 11  2  0
 10 12  1  0
 12 13  1  0
 12 36  1  0
 13 14  2  0
 13 27  1  0
 14 15  1  0
 14 37  1  0
 15 16  2  0
 15 38  1  0
 16 17  1  0
 16 39  1  0
 17 18  1  0
 17 27  2  0
 18 19  1  0
 18 40  1  0
 18 41  1  0
 19 20  1  0
 20 21  1  0
 20 42  1  0
 20 43  1  0
 21 22  1  1
 21 23  1  0
 21 24  1  0
 24 25  1  0
 24 26  1  0
 24 44  1  6
 27 45  1  0
M  END

