
     RDKit          3D

 58 63  0  0  0  0  0  0  0  0999 V2000
    1.9824   -0.9731    1.1888 C   0  0  0  0  0  0  0  0  0  0  0  0
    2.2670    0.2537    0.5521 C   0  0  0  0  0  0  0  0  0  0  0  0
    1.2637    1.0094   -0.0562 C   0  0  0  0  0  0  0  0  0  0  0  0
   -0.0348    0.4927   -0.0044 C   0  0  0  0  0  0  0  0  0  0  0  0
   -1.2527    0.9435   -0.4802 N   0  0  0  0  0  0  0  0  0  0  0  0
   -1.4206    1.8103   -0.9744 H   0  0  0  0  0  0  0  0  0  0  0  0
   -2.2097    0.0113   -0.1239 C   0  0  0  0  0  0  0  0  0  0  0  0
   -3.6628    0.2043   -0.4790 C   0  0  1  0  0  0  0  0  0  0  0  0
   -3.9092    0.1898   -2.0075 C   0  0  0  0  0  0  0  0  0  0  0  0
   -3.8004   -1.2180   -2.5940 C   0  0  0  0  0  0  0  0  0  0  0  0
   -4.6966   -2.1462   -1.9061 N   0  0  0  0  0  0  0  0  0  0  0  0
   -5.4341   -3.0637   -2.6192 C   0  0  0  0  0  0  0  0  0  0  0  0
   -6.1137   -4.1613   -2.0243 C   0  0  0  0  0  0  0  0  0  0  0  0
   -6.8550   -4.9804   -2.8463 C   0  0  0  0  0  0  0  0  0  0  0  0
   -6.9062   -4.7068   -4.2321 C   0  0  0  0  0  0  0  0  0  0  0  0
   -7.6833   -5.5196   -5.2036 C   0  0  0  0  0  0  0  0  0  0  0  0
   -7.5582   -5.2764   -6.5858 C   0  0  0  0  0  0  0  0  0  0  0  0
   -8.2818   -6.0325   -7.4997 C   0  0  0  0  0  0  0  0  0  0  0  0
   -9.1555   -7.0558   -7.0918 C   0  0  0  0  0  0  0  0  0  0  0  0
   -9.2918   -7.3093   -5.7133 C   0  0  0  0  0  0  0  0  0  0  0  0
   -8.5579   -6.5386   -4.7986 C   0  0  0  0  0  0  0  0  0  0  0  0
  -10.1890   -8.4232   -5.2005 C   0  0  0  0  0  0  0  0  0  0  0  0
  -11.2144   -8.9056   -6.2314 C   0  0  0  0  0  0  0  0  0  0  0  0
  -10.5420   -9.1384   -7.5865 C   0  0  0  0  0  0  0  0  0  0  0  0
   -9.9537   -7.8304   -8.1244 C   0  0  0  0  0  0  0  0  0  0  0  0
   -6.2099   -3.6737   -4.7238 N   0  0  0  0  0  0  0  0  0  0  0  0
   -5.4976   -2.8841   -3.9555 N   0  0  0  0  0  0  0  0  0  0  0  0
   -4.4951   -2.2262   -0.4632 C   0  0  0  0  0  0  0  0  0  0  0  0
   -4.5746   -0.8388    0.1899 C   0  0  0  0  0  0  0  0  0  0  0  0
   -1.6963   -0.9979    0.5363 N   0  0  0  0  0  0  0  0  0  0  0  0
   -0.3395   -0.7380    0.6337 C   0  0  0  0  0  0  0  0  0  0  0  0
    0.6856   -1.4814    1.2378 C   0  0  0  0  0  0  0  0  0  0  0  0
    2.7988   -1.5328    1.6519 H   0  0  0  0  0  0  0  0  0  0  0  0
    3.2964    0.6203    0.5341 H   0  0  0  0  0  0  0  0  0  0  0  0
    1.4896    1.9584   -0.5482 H   0  0  0  0  0  0  0  0  0  0  0  0
   -3.9481    1.2030   -0.1000 H   0  0  0  0  0  0  0  0  0  0  0  0
   -3.2004    0.8550   -2.5288 H   0  0  0  0  0  0  0  0  0  0  0  0
   -4.9204    0.5836   -2.2029 H   0  0  0  0  0  0  0  0  0  0  0  0
   -2.7570   -1.5826   -2.5060 H   0  0  0  0  0  0  0  0  0  0  0  0
   -4.0654   -1.2214   -3.6567 H   0  0  0  0  0  0  0  0  0  0  0  0
   -6.0461   -4.3763   -0.9587 H   0  0  0  0  0  0  0  0  0  0  0  0
   -7.3753   -5.8401   -2.4220 H   0  0  0  0  0  0  0  0  0  0  0  0
   -6.8841   -4.4861   -6.9167 H   0  0  0  0  0  0  0  0  0  0  0  0
   -8.1688   -5.8289   -8.5694 H   0  0  0  0  0  0  0  0  0  0  0  0
   -8.6961   -6.7522   -3.7355 H   0  0  0  0  0  0  0  0  0  0  0  0
  -10.6944   -8.0958   -4.2762 H   0  0  0  0  0  0  0  0  0  0  0  0
   -9.5516   -9.2780   -4.9037 H   0  0  0  0  0  0  0  0  0  0  0  0
  -12.0123   -8.1493   -6.3471 H   0  0  0  0  0  0  0  0  0  0  0  0
  -11.7043   -9.8255   -5.8721 H   0  0  0  0  0  0  0  0  0  0  0  0
  -11.2574   -9.5567   -8.3135 H   0  0  0  0  0  0  0  0  0  0  0  0
   -9.7388   -9.8887   -7.4691 H   0  0  0  0  0  0  0  0  0  0  0  0
  -10.7794   -7.1865   -8.4839 H   0  0  0  0  0  0  0  0  0  0  0  0
   -9.3242   -8.0227   -9.0096 H   0  0  0  0  0  0  0  0  0  0  0  0
   -3.5140   -2.6792   -0.2325 H   0  0  0  0  0  0  0  0  0  0  0  0
   -5.2688   -2.8600   -0.0138 H   0  0  0  0  0  0  0  0  0  0  0  0
   -4.3205   -0.9354    1.2558 H   0  0  0  0  0  0  0  0  0  0  0  0
   -5.6136   -0.4751    0.1223 H   0  0  0  0  0  0  0  0  0  0  0  0
    0.4587   -2.4297    1.7295 H   0  0  0  0  0  0  0  0  0  0  0  0
  1  2  2  0
  1 32  1  0
  1 33  1  0
  2  3  1  0
  2 34  1  0
  3  4  2  0
  3 35  1  0
  4  5  1  0
  4 31  1  0
  5  6  1  0
  5  7  1  0
  7  8  1  0
  7 30  2  0
  8  9  1  0
  8 29  1  0
  8 36  1  1
  9 10  1  0
  9 37  1  0
  9 38  1  0
 10 11  1  0
 10 39  1  0
 10 40  1  0
 11 12  1  0
 11 28  1  0
 12 13  2  0
 12 27  1  0
 13 14  1  0
 13 41  1  0
 14 15  2  0
 14 42  1  0
 15 16  1  0
 15 26  1  0
 16 17  2  0
 16 21  1  0
 17 18  1  0
 17 43  1  0
 18 19  2  0
 18 44  1  0
 19 20  1  0
 19 25  1  0
 20 21  2  0
 20 22  1  0
 21 45  1  0
 22 23  1  0
 22 46  1  0
 22 47  1  0
 23 24  1  0
 23 48  1  0
 23 49  1  0
 24 25  1  0
 24 50  1  0
 24 51  1  0
 25 52  1  0
 25 53  1  0
 26 27  2  0
 28 29  1  0
 28 54  1  0
 28 55  1  0
 29 56  1  0
 29 57  1  0
 30 31  1  0
 31 32  2  0
 32 58  1  0
M  END

