
     RDKit          3D

 45 46  0  0  0  0  0  0  0  0999 V2000
    3.1711   -0.2192    2.6826 C   0  0  0  0  0  0  0  0  0  0  0  0
    2.3998    1.0356    3.0917 C   0  0  0  0  0  0  0  0  0  0  0  0
    3.1036    2.2724    2.7310 N   0  0  0  0  0  0  0  0  0  0  0  0
    3.8199    2.9290    3.6187 C   0  0  0  0  0  0  0  0  0  0  0  0
    4.5465    4.0959    3.3073 C   0  0  0  0  0  0  0  0  0  0  0  0
    4.5377    4.5940    1.9808 C   0  0  0  0  0  0  0  0  0  0  0  0
    3.7825    3.9581    1.0333 C   0  0  0  0  0  0  0  0  0  0  0  0
    2.8553    2.8153    1.3138 C   0  0  2  0  0  0  0  0  0  0  0  0
    1.4315    3.1462    1.0615 C   0  0  0  0  0  0  0  0  0  0  0  0
    0.6007    2.3242    0.2881 C   0  0  0  0  0  0  0  0  0  0  0  0
   -0.7629    2.4843    0.0002 C   0  0  0  0  0  0  0  0  0  0  0  0
   -1.5111    1.6169   -0.8104 C   0  0  0  0  0  0  0  0  0  0  0  0
   -2.8967    1.7123   -1.1523 C   0  0  0  0  0  0  0  0  0  0  0  0
   -3.7674    2.7484   -0.7027 C   0  0  0  0  0  0  0  0  0  0  0  0
   -5.1087    2.8045   -1.0606 C   0  0  0  0  0  0  0  0  0  0  0  0
   -5.6987    1.8281   -1.9015 C   0  0  0  0  0  0  0  0  0  0  0  0
   -7.0466    1.8862   -2.2641 N   0  0  0  0  0  0  0  0  0  0  0  0
   -7.6067    0.8659   -3.1147 C   0  0  0  0  0  0  0  0  0  0  0  0
   -7.8764    2.9590   -1.7762 C   0  0  0  0  0  0  0  0  0  0  0  0
   -4.8474    0.7885   -2.3567 C   0  0  0  0  0  0  0  0  0  0  0  0
   -3.5087    0.7402   -1.9946 C   0  0  0  0  0  0  0  0  0  0  0  0
    2.5894   -1.1104    2.9617 H   0  0  0  0  0  0  0  0  0  0  0  0
    4.1505   -0.2777    3.1833 H   0  0  0  0  0  0  0  0  0  0  0  0
    3.3348   -0.2585    1.5950 H   0  0  0  0  0  0  0  0  0  0  0  0
    2.2247    1.0469    4.1780 H   0  0  0  0  0  0  0  0  0  0  0  0
    1.4219    1.0823    2.5934 H   0  0  0  0  0  0  0  0  0  0  0  0
    3.8291    2.5345    4.6398 H   0  0  0  0  0  0  0  0  0  0  0  0
    5.1095    4.5870    4.1001 H   0  0  0  0  0  0  0  0  0  0  0  0
    5.1245    5.4792    1.7275 H   0  0  0  0  0  0  0  0  0  0  0  0
    3.7624    4.3143    0.0023 H   0  0  0  0  0  0  0  0  0  0  0  0
    3.1530    1.9829    0.6481 H   0  0  0  0  0  0  0  0  0  0  0  0
    1.0440    4.0552    1.5293 H   0  0  0  0  0  0  0  0  0  0  0  0
    1.0748    1.4403   -0.1687 H   0  0  0  0  0  0  0  0  0  0  0  0
   -1.2626    3.3553    0.4405 H   0  0  0  0  0  0  0  0  0  0  0  0
   -0.9780    0.7590   -1.2399 H   0  0  0  0  0  0  0  0  0  0  0  0
   -3.3753    3.5341   -0.0528 H   0  0  0  0  0  0  0  0  0  0  0  0
   -5.7090    3.6301   -0.6759 H   0  0  0  0  0  0  0  0  0  0  0  0
   -7.5355   -0.1465   -2.6692 H   0  0  0  0  0  0  0  0  0  0  0  0
   -7.1093    0.8173   -4.1038 H   0  0  0  0  0  0  0  0  0  0  0  0
   -8.6707    1.0762   -3.2899 H   0  0  0  0  0  0  0  0  0  0  0  0
   -7.9417    2.9780   -0.6698 H   0  0  0  0  0  0  0  0  0  0  0  0
   -8.8968    2.8418   -2.1661 H   0  0  0  0  0  0  0  0  0  0  0  0
   -7.5104    3.9558   -2.0933 H   0  0  0  0  0  0  0  0  0  0  0  0
   -5.2365    0.0034   -3.0062 H   0  0  0  0  0  0  0  0  0  0  0  0
   -2.8938   -0.0823   -2.3742 H   0  0  0  0  0  0  0  0  0  0  0  0
  1  2  1  0
  1 22  1  0
  1 23  1  0
  1 24  1  0
  2  3  1  0
  2 25  1  0
  2 26  1  0
  3  4  1  0
  3  8  1  0
  4  5  2  0
  4 27  1  0
  5  6  1  0
  5 28  1  0
  6  7  2  0
  6 29  1  0
  7  8  1  0
  7 30  1  0
  8  9  1  0
  8 31  1  6
  9 10  2  0
  9 32  1  0
 10 11  1  0
 10 33  1  0
 11 12  2  0
 11 34  1  0
 12 13  1  0
 12 35  1  0
 13 14  2  0
 13 21  1  0
 14 15  1  0
 14 36  1  0
 15 16  2  0
 15 37  1  0
 16 17  1  0
 16 20  1  0
 17 18  1  0
 17 19  1  0
 18 38  1  0
 18 39  1  0
 18 40  1  0
 19 41  1  0
 19 42  1  0
 19 43  1  0
 20 21  2  0
 20 44  1  0
 21 45  1  0
M  END

