
     RDKit          3D

 45 49  0  0  0  0  0  0  0  0999 V2000
    0.8578   -0.1542    0.3418 C   0  0  0  0  0  0  0  0  0  0  0  0
    2.3580   -0.0227    0.2457 C   0  0  0  0  0  0  0  0  0  0  0  0
    2.9894    1.2035    0.5086 C   0  0  0  0  0  0  0  0  0  0  0  0
    4.3771    1.3338    0.4231 C   0  0  0  0  0  0  0  0  0  0  0  0
    5.2021    0.2379    0.0687 C   0  0  0  0  0  0  0  0  0  0  0  0
    6.6189    0.3258   -0.0304 C   0  0  0  0  0  0  0  0  0  0  0  0
    7.3274   -0.8474   -0.3947 C   0  0  0  0  0  0  0  0  0  0  0  0
    8.7471   -1.0731   -0.5720 C   0  0  0  0  0  0  0  0  0  0  0  0
    9.6972   -0.1594   -0.4107 N   0  0  0  0  0  0  0  0  0  0  0  0
    9.0853   -2.4157   -0.9531 C   0  0  0  0  0  0  0  0  0  0  0  0
   10.4662   -2.8516   -1.1940 C   0  0  0  0  0  0  0  0  0  0  0  0
   11.4143   -2.0576   -1.0522 O   0  0  0  0  0  0  0  0  0  0  0  0
   10.6684   -4.1489   -1.5558 N   0  0  0  0  0  0  0  0  0  0  0  0
   11.9909   -4.6747   -1.8793 C   0  0  0  0  0  0  0  0  0  0  0  0
   12.2825   -4.7330   -3.3682 C   0  0  0  0  0  0  0  0  0  0  0  0
   12.5896   -3.5568   -4.0684 C   0  0  0  0  0  0  0  0  0  0  0  0
   12.8391   -3.5621   -5.4534 C   0  0  0  0  0  0  0  0  0  0  0  0
   12.7665   -4.7834   -6.1013 C   0  0  0  0  0  0  0  0  0  0  0  0
   12.4633   -5.9606   -5.4134 C   0  0  0  0  0  0  0  0  0  0  0  0
   12.2177   -5.9687   -4.0516 C   0  0  0  0  0  0  0  0  0  0  0  0
   12.4922   -7.0138   -6.2847 O   0  0  0  0  0  0  0  0  0  0  0  0
   12.6496   -6.4475   -7.5836 C   0  0  0  0  0  0  0  0  0  0  0  0
   12.9921   -5.0743   -7.4177 O   0  0  0  0  0  0  0  0  0  0  0  0
    7.6724   -3.3864   -1.0712 S   0  0  0  0  0  0  0  0  0  0  0  0
    6.5755   -2.0007   -0.6291 C   0  0  0  0  0  0  0  0  0  0  0  0
    5.2804   -2.1608   -0.5594 N   0  0  0  0  0  0  0  0  0  0  0  0
    4.5584   -1.0338   -0.2056 C   0  0  0  0  0  0  0  0  0  0  0  0
    3.1599   -1.1240   -0.1084 C   0  0  0  0  0  0  0  0  0  0  0  0
    0.3458    0.5332   -0.3538 H   0  0  0  0  0  0  0  0  0  0  0  0
    0.4946    0.0912    1.3549 H   0  0  0  0  0  0  0  0  0  0  0  0
    0.5261   -1.1763    0.1065 H   0  0  0  0  0  0  0  0  0  0  0  0
    2.3854    2.0730    0.7855 H   0  0  0  0  0  0  0  0  0  0  0  0
    4.8475    2.2988    0.6325 H   0  0  0  0  0  0  0  0  0  0  0  0
    7.1209    1.2748    0.1716 H   0  0  0  0  0  0  0  0  0  0  0  0
    9.4694    0.7894   -0.1387 H   0  0  0  0  0  0  0  0  0  0  0  0
   10.6632   -0.4914   -0.5707 H   0  0  0  0  0  0  0  0  0  0  0  0
    9.8640   -4.7221   -1.7853 H   0  0  0  0  0  0  0  0  0  0  0  0
   12.0808   -5.6803   -1.4385 H   0  0  0  0  0  0  0  0  0  0  0  0
   12.7127   -4.0192   -1.3745 H   0  0  0  0  0  0  0  0  0  0  0  0
   12.6337   -2.6137   -3.5186 H   0  0  0  0  0  0  0  0  0  0  0  0
   13.0863   -2.6486   -5.9964 H   0  0  0  0  0  0  0  0  0  0  0  0
   11.9932   -6.9017   -3.5301 H   0  0  0  0  0  0  0  0  0  0  0  0
   11.6970   -6.5296   -8.1440 H   0  0  0  0  0  0  0  0  0  0  0  0
   13.4566   -6.9702   -8.1222 H   0  0  0  0  0  0  0  0  0  0  0  0
    2.7084   -2.0957   -0.3207 H   0  0  0  0  0  0  0  0  0  0  0  0
  1  2  1  0
  1 29  1  0
  1 30  1  0
  1 31  1  0
  2  3  2  0
  2 28  1  0
  3  4  1  0
  3 32  1  0
  4  5  2  0
  4 33  1  0
  5  6  1  0
  5 27  1  0
  6  7  2  0
  6 34  1  0
  7  8  1  0
  7 25  1  0
  8  9  1  0
  8 10  2  0
  9 35  1  0
  9 36  1  0
 10 11  1  0
 10 24  1  0
 11 12  2  0
 11 13  1  0
 13 14  1  0
 13 37  1  0
 14 15  1  0
 14 38  1  0
 14 39  1  0
 15 16  2  0
 15 20  1  0
 16 17  1  0
 16 40  1  0
 17 18  2  0
 17 41  1  0
 18 19  1  0
 18 23  1  0
 19 20  2  0
 19 21  1  0
 20 42  1  0
 21 22  1  0
 22 23  1  0
 22 43  1  0
 22 44  1  0
 24 25  1  0
 25 26  2  0
 26 27  1  0
 27 28  2  0
 28 45  1  0
M  END

