
     RDKit          3D

118124  0  0  0  0  0  0  0  0999 V2000
   13.9296    7.0942    0.0142 C   0  0  0  0  0  0  0  0  0  0  0  0
   14.4204    5.6637    0.2212 C   0  0  0  0  0  0  0  0  0  0  0  0
   13.5360    4.6201   -0.2902 N   0  0  0  0  0  0  0  0  0  0  0  0
   12.0962    4.8354   -0.2230 C   0  0  0  0  0  0  0  0  0  0  0  0
   11.4613    4.5271    1.1392 C   0  0  0  0  0  0  0  0  0  0  0  0
   14.0316    3.3105   -0.3525 C   0  0  0  0  0  0  0  0  0  0  0  0
   15.3730    2.9957   -0.0213 C   0  0  0  0  0  0  0  0  0  0  0  0
   15.8627    1.6983   -0.1305 C   0  0  0  0  0  0  0  0  0  0  0  0
   15.0654    0.6068   -0.5423 C   0  0  0  0  0  0  0  0  0  0  0  0
   15.6823   -0.7114   -0.6228 C   0  0  0  0  0  0  0  0  0  0  0  0
   15.1058   -1.9532   -0.6810 C   0  0  0  0  0  0  0  0  0  0  0  0
   13.6192   -2.2327   -0.5692 C   0  0  0  0  0  0  0  0  0  0  0  0
   13.5362   -3.6958   -0.1073 C   0  0  0  0  0  0  0  0  0  0  0  0
   14.8516   -4.3073   -0.5505 C   0  0  0  0  0  0  0  0  0  0  0  0
   15.0717   -5.6499   -0.7713 C   0  0  0  0  0  0  0  0  0  0  0  0
   14.2259   -6.7937   -0.4953 C   0  0  0  0  0  0  0  0  0  0  0  0
   13.0834   -6.8037    0.3510 C   0  0  0  0  0  0  0  0  0  0  0  0
   12.3668   -7.9713    0.6039 C   0  0  0  0  0  0  0  0  0  0  0  0
   12.7569   -9.1805    0.0216 C   0  0  0  0  0  0  0  0  0  0  0  0
   12.0265  -10.4048    0.3150 N   0  0  0  0  0  0  0  0  0  0  0  0
   10.7715  -10.5934   -0.3682 C   0  0  0  0  0  0  0  0  0  0  0  0
   10.7347  -10.5859   -1.7693 C   0  0  0  0  0  0  0  0  0  0  0  0
    9.5136  -10.7357   -2.4274 C   0  0  0  0  0  0  0  0  0  0  0  0
    8.3288  -10.8837   -1.6979 C   0  0  0  0  0  0  0  0  0  0  0  0
    8.3680  -10.8769   -0.3008 C   0  0  0  0  0  0  0  0  0  0  0  0
    9.5856  -10.7288    0.3675 C   0  0  0  0  0  0  0  0  0  0  0  0
   12.5064  -11.2998    1.2067 C   0  0  0  0  0  0  0  0  0  0  0  0
   13.6514  -10.9777    2.0166 C   0  0  0  0  0  0  0  0  0  0  0  0
   14.1649  -11.8788    2.9117 C   0  0  0  0  0  0  0  0  0  0  0  0
   13.6006  -13.1848    3.0793 C   0  0  0  0  0  0  0  0  0  0  0  0
   14.0575  -14.1919    3.9764 C   0  0  0  0  0  0  0  0  0  0  0  0
   15.2064  -14.2478    4.7514 C   0  0  0  0  0  0  0  0  0  0  0  0
   16.3625  -13.2813    4.6753 C   0  0  0  0  0  0  0  0  0  0  0  0
   17.5482  -14.0247    5.3070 C   0  0  0  0  0  0  0  0  0  0  0  0
   16.9071  -15.0880    6.1730 C   0  0  0  0  0  0  0  0  0  0  0  0
   17.4880  -15.6873    7.2647 C   0  0  0  0  0  0  0  0  0  0  0  0
   18.8248  -15.5837    7.7902 C   0  0  0  0  0  0  0  0  0  0  0  0
   19.0762  -16.1317    9.0762 C   0  0  0  0  0  0  0  0  0  0  0  0
   20.3186  -16.0848    9.6769 C   0  0  0  0  0  0  0  0  0  0  0  0
   21.4375  -15.4966    9.0158 C   0  0  0  0  0  0  0  0  0  0  0  0
   22.6823  -15.4664    9.5893 N   0  0  0  0  0  0  0  0  0  0  0  0
   22.9080  -15.9895   10.9388 C   0  0  0  0  0  0  0  0  0  0  0  0
   22.5055  -15.0479   12.0787 C   0  0  0  0  0  0  0  0  0  0  0  0
   23.8245  -14.8608    8.9009 C   0  0  0  0  0  0  0  0  0  0  0  0
   23.9391  -13.3404    9.0499 C   0  0  0  0  0  0  0  0  0  0  0  0
   21.1949  -14.9629    7.7143 C   0  0  0  0  0  0  0  0  0  0  0  0
   19.9426  -15.0092    7.1307 C   0  0  0  0  0  0  0  0  0  0  0  0
   15.5324  -15.2981    5.7239 C   0  0  0  0  0  0  0  0  0  0  0  0
   14.6623  -16.3270    6.1312 C   0  0  0  0  0  0  0  0  0  0  0  0
   15.0753  -17.4363    6.9311 C   0  0  0  0  0  0  0  0  0  0  0  0
   15.3591  -18.3679    7.5688 N   0  0  0  0  0  0  0  0  0  0  0  0
   13.2750  -16.3914    5.8008 C   0  0  0  0  0  0  0  0  0  0  0  0
   12.1389  -16.4834    5.5625 N   0  0  0  0  0  0  0  0  0  0  0  0
   12.4467  -13.4873    2.2811 C   0  0  0  0  0  0  0  0  0  0  0  0
   11.9192  -12.5997    1.3802 C   0  0  0  0  0  0  0  0  0  0  0  0
   13.8744   -9.2111   -0.8240 C   0  0  0  0  0  0  0  0  0  0  0  0
   14.5895   -8.0450   -1.0665 C   0  0  0  0  0  0  0  0  0  0  0  0
   15.8024   -3.2337   -0.7764 C   0  0  0  0  0  0  0  0  0  0  0  0
   17.1974   -3.4099   -1.0412 C   0  0  0  0  0  0  0  0  0  0  0  0
   17.8967   -4.6242   -0.7957 C   0  0  0  0  0  0  0  0  0  0  0  0
   18.5173   -5.5949   -0.6011 N   0  0  0  0  0  0  0  0  0  0  0  0
   18.0400   -2.3854   -1.5563 C   0  0  0  0  0  0  0  0  0  0  0  0
   18.7774   -1.5861   -1.9820 N   0  0  0  0  0  0  0  0  0  0  0  0
   13.7272    0.9278   -0.8701 C   0  0  0  0  0  0  0  0  0  0  0  0
   13.2276    2.2227   -0.7754 C   0  0  0  0  0  0  0  0  0  0  0  0
   14.7265    7.7902    0.3195 H   0  0  0  0  0  0  0  0  0  0  0  0
   13.0395    7.3394    0.6136 H   0  0  0  0  0  0  0  0  0  0  0  0
   13.6990    7.2925   -1.0447 H   0  0  0  0  0  0  0  0  0  0  0  0
   14.6461    5.5099    1.2990 H   0  0  0  0  0  0  0  0  0  0  0  0
   15.3845    5.5686   -0.3021 H   0  0  0  0  0  0  0  0  0  0  0  0
   11.6084    4.2382   -1.0067 H   0  0  0  0  0  0  0  0  0  0  0  0
   11.8880    5.8783   -0.5002 H   0  0  0  0  0  0  0  0  0  0  0  0
   11.6280    3.4772    1.4258 H   0  0  0  0  0  0  0  0  0  0  0  0
   10.3737    4.7065    1.1131 H   0  0  0  0  0  0  0  0  0  0  0  0
   11.8889    5.1627    1.9316 H   0  0  0  0  0  0  0  0  0  0  0  0
   16.0570    3.7672    0.3270 H   0  0  0  0  0  0  0  0  0  0  0  0
   16.9102    1.5135    0.1232 H   0  0  0  0  0  0  0  0  0  0  0  0
   16.7719   -0.6767   -0.6105 H   0  0  0  0  0  0  0  0  0  0  0  0
   13.1242   -2.1220   -1.5518 H   0  0  0  0  0  0  0  0  0  0  0  0
   13.1168   -1.5389    0.1210 H   0  0  0  0  0  0  0  0  0  0  0  0
   12.6663   -4.2237   -0.5269 H   0  0  0  0  0  0  0  0  0  0  0  0
   13.4375   -3.7382    0.9938 H   0  0  0  0  0  0  0  0  0  0  0  0
   16.0262   -5.9201   -1.2209 H   0  0  0  0  0  0  0  0  0  0  0  0
   12.7659   -5.8893    0.8480 H   0  0  0  0  0  0  0  0  0  0  0  0
   11.5012   -7.9423    1.2712 H   0  0  0  0  0  0  0  0  0  0  0  0
   11.6581  -10.4554   -2.3349 H   0  0  0  0  0  0  0  0  0  0  0  0
    9.4881  -10.7333   -3.5196 H   0  0  0  0  0  0  0  0  0  0  0  0
    7.3752  -10.9954   -2.2187 H   0  0  0  0  0  0  0  0  0  0  0  0
    7.4453  -10.9767    0.2758 H   0  0  0  0  0  0  0  0  0  0  0  0
    9.6177  -10.7014    1.4588 H   0  0  0  0  0  0  0  0  0  0  0  0
   14.1003   -9.9912    1.9179 H   0  0  0  0  0  0  0  0  0  0  0  0
   15.0081  -11.5643    3.5226 H   0  0  0  0  0  0  0  0  0  0  0  0
   13.3884  -15.0487    4.0386 H   0  0  0  0  0  0  0  0  0  0  0  0
   16.1268  -12.3747    5.2637 H   0  0  0  0  0  0  0  0  0  0  0  0
   16.5596  -12.9508    3.6460 H   0  0  0  0  0  0  0  0  0  0  0  0
   18.1971  -13.3522    5.8852 H   0  0  0  0  0  0  0  0  0  0  0  0
   18.1736  -14.4785    4.5173 H   0  0  0  0  0  0  0  0  0  0  0  0
   16.8453  -16.3290    7.8677 H   0  0  0  0  0  0  0  0  0  0  0  0
   18.2511  -16.6050    9.6152 H   0  0  0  0  0  0  0  0  0  0  0  0
   20.4271  -16.5141   10.6707 H   0  0  0  0  0  0  0  0  0  0  0  0
   23.9800  -16.2239   11.0179 H   0  0  0  0  0  0  0  0  0  0  0  0
   22.3860  -16.9539   11.0424 H   0  0  0  0  0  0  0  0  0  0  0  0
   23.0775  -14.1084   12.0458 H   0  0  0  0  0  0  0  0  0  0  0  0
   22.7028  -15.5294   13.0497 H   0  0  0  0  0  0  0  0  0  0  0  0
   21.4355  -14.7924   12.0403 H   0  0  0  0  0  0  0  0  0  0  0  0
   23.7867  -15.1366    7.8357 H   0  0  0  0  0  0  0  0  0  0  0  0
   24.7327  -15.3400    9.2967 H   0  0  0  0  0  0  0  0  0  0  0  0
   23.0371  -12.8291    8.6811 H   0  0  0  0  0  0  0  0  0  0  0  0
   24.8010  -12.9681    8.4739 H   0  0  0  0  0  0  0  0  0  0  0  0
   24.0850  -13.0488   10.1010 H   0  0  0  0  0  0  0  0  0  0  0  0
   22.0049  -14.5084    7.1474 H   0  0  0  0  0  0  0  0  0  0  0  0
   19.8411  -14.6102    6.1229 H   0  0  0  0  0  0  0  0  0  0  0  0
   11.9834  -14.4708    2.3927 H   0  0  0  0  0  0  0  0  0  0  0  0
   11.0582  -12.8848    0.7778 H   0  0  0  0  0  0  0  0  0  0  0  0
   14.1964  -10.1543   -1.2741 H   0  0  0  0  0  0  0  0  0  0  0  0
   15.4738   -8.0875   -1.7070 H   0  0  0  0  0  0  0  0  0  0  0  0
   13.0557    0.1545   -1.2415 H   0  0  0  0  0  0  0  0  0  0  0  0
   12.1878    2.3831   -1.0579 H   0  0  0  0  0  0  0  0  0  0  0  0
  1  2  1  0
  1 66  1  0
  1 67  1  0
  1 68  1  0
  2  3  1  0
  2 69  1  0
  2 70  1  0
  3  4  1  0
  3  6  1  0
  4  5  1  0
  4 71  1  0
  4 72  1  0
  5 73  1  0
  5 74  1  0
  5 75  1  0
  6  7  2  0
  6 65  1  0
  7  8  1  0
  7 76  1  0
  8  9  2  0
  8 77  1  0
  9 10  1  0
  9 64  1  0
 10 11  2  0
 10 78  1  0
 11 12  1  0
 11 58  1  0
 12 13  1  0
 12 79  1  0
 12 80  1  0
 13 14  1  0
 13 81  1  0
 13 82  1  0
 14 15  2  0
 14 58  1  0
 15 16  1  0
 15 83  1  0
 16 17  2  0
 16 57  1  0
 17 18  1  0
 17 84  1  0
 18 19  2  0
 18 85  1  0
 19 20  1  0
 19 56  1  0
 20 21  1  0
 20 27  1  0
 21 22  2  0
 21 26  1  0
 22 23  1  0
 22 86  1  0
 23 24  2  0
 23 87  1  0
 24 25  1  0
 24 88  1  0
 25 26  2  0
 25 89  1  0
 26 90  1  0
 27 28  2  0
 27 55  1  0
 28 29  1  0
 28 91  1  0
 29 30  2  0
 29 92  1  0
 30 31  1  0
 30 54  1  0
 31 32  2  0
 31 93  1  0
 32 33  1  0
 32 48  1  0
 33 34  1  0
 33 94  1  0
 33 95  1  0
 34 35  1  0
 34 96  1  0
 34 97  1  0
 35 36  2  0
 35 48  1  0
 36 37  1  0
 36 98  1  0
 37 38  2  0
 37 47  1  0
 38 39  1  0
 38 99  1  0
 39 40  2  0
 39100  1  0
 40 41  1  0
 40 46  1  0
 41 42  1  0
 41 44  1  0
 42 43  1  0
 42101  1  0
 42102  1  0
 43103  1  0
 43104  1  0
 43105  1  0
 44 45  1  0
 44106  1  0
 44107  1  0
 45108  1  0
 45109  1  0
 45110  1  0
 46 47  2  0
 46111  1  0
 47112  1  0
 48 49  2  0
 49 50  1  0
 49 52  1  0
 50 51  3  0
 52 53  3  0
 54 55  2  0
 54113  1  0
 55114  1  0
 56 57  2  0
 56115  1  0
 57116  1  0
 58 59  2  0
 59 60  1  0
 59 62  1  0
 60 61  3  0
 62 63  3  0
 64 65  2  0
 64117  1  0
 65118  1  0
M  END

