
     RDKit          3D

 88 93  0  0  0  0  0  0  0  0999 V2000
    5.6991    0.5496    0.7839 C   0  0  0  0  0  0  0  0  0  0  0  0
    4.4269    0.9845    1.5294 C   0  0  0  0  0  0  0  0  0  0  0  0
    3.3133    1.4257    0.5996 C   0  0  0  0  0  0  0  0  0  0  0  0
    3.1465    2.7889    0.3199 C   0  0  0  0  0  0  0  0  0  0  0  0
    2.1844    3.2226   -0.5914 C   0  0  0  0  0  0  0  0  0  0  0  0
    1.3634    2.2865   -1.2196 C   0  0  0  0  0  0  0  0  0  0  0  0
    1.4739    0.9135   -0.9523 C   0  0  0  0  0  0  0  0  0  0  0  0
    0.4980   -0.0515   -1.5937 C   0  0  0  0  0  0  0  0  0  0  0  0
   -0.5737   -0.5818   -0.6279 C   0  0  0  0  0  0  0  0  0  0  0  0
    2.4702    0.4871   -0.0423 C   0  0  0  0  0  0  0  0  0  0  0  0
    2.6223   -0.8856    0.2852 N   0  0  0  0  0  0  0  0  0  0  0  0
    2.9950   -1.9110   -0.5593 C   0  0  0  0  0  0  0  0  0  0  0  0
    3.1063   -1.7921   -1.7725 O   0  0  0  0  0  0  0  0  0  0  0  0
    3.2486   -3.1837    0.1656 C   0  0  0  0  0  0  0  0  0  0  0  0
    3.1824   -3.2154    1.5101 N   0  0  0  0  0  0  0  0  0  0  0  0
    3.4775   -4.4920    1.8509 N   0  0  0  0  0  0  0  0  0  0  0  0
    3.5162   -4.8519    3.2459 C   0  0  0  0  0  0  0  0  0  0  0  0
    3.7210   -5.2877    0.7449 C   0  0  0  0  0  0  0  0  0  0  0  0
    3.5878   -4.4342   -0.3743 C   0  0  0  0  0  0  0  0  0  0  0  0
    3.7413   -4.9689   -1.7663 C   0  0  0  0  0  0  0  0  0  0  0  0
    4.7509   -6.1341   -1.7519 C   0  0  0  0  0  0  0  0  0  0  0  0
    4.4769   -7.1409   -0.6551 C   0  0  0  0  0  0  0  0  0  0  0  0
    4.7123   -8.4868   -0.7888 C   0  0  0  0  0  0  0  0  0  0  0  0
    4.5417   -9.3875    0.2388 N   0  0  0  0  0  0  0  0  0  0  0  0
    4.1450   -8.8362    1.3815 C   0  0  0  0  0  0  0  0  0  0  0  0
    4.0116   -9.8397    2.4021 N   0  0  0  0  0  0  0  0  0  0  0  0
    3.4110   -9.8291    3.6109 C   0  0  0  0  0  0  0  0  0  0  0  0
    2.8027   -8.6907    4.2120 C   0  0  0  0  0  0  0  0  0  0  0  0
    2.1996   -8.7676    5.4579 C   0  0  0  0  0  0  0  0  0  0  0  0
    2.1418   -9.9756    6.1820 C   0  0  0  0  0  0  0  0  0  0  0  0
    1.5094  -10.0211    7.5198 C   0  0  0  0  0  0  0  0  0  0  0  0
    1.5781   -9.1232    8.3341 O   0  0  0  0  0  0  0  0  0  0  0  0
    0.8032  -11.2238    7.8554 N   0  0  0  0  0  0  0  0  0  0  0  0
    0.3287  -11.3196    9.2282 C   0  0  0  0  0  0  0  0  0  0  0  0
    0.4380  -12.7303    9.8046 C   0  0  0  0  0  0  0  0  0  0  0  0
   -0.3886  -13.8142    9.0818 C   0  0  0  0  0  0  0  0  0  0  0  0
    0.1895  -14.2325    7.8108 N   0  0  0  0  0  0  0  0  0  0  0  0
    0.7564  -15.5553    7.7091 C   0  0  0  0  0  0  0  0  0  0  0  0
    0.2387  -13.3594    6.6417 C   0  0  0  0  0  0  0  0  0  0  0  0
   -0.0472  -11.8762    6.8763 C   0  0  0  0  0  0  0  0  0  0  0  0
    2.7713  -11.1007    5.6238 C   0  0  0  0  0  0  0  0  0  0  0  0
    3.3640  -11.0285    4.3774 C   0  0  0  0  0  0  0  0  0  0  0  0
    4.0147  -12.1561    3.8261 O   0  0  0  0  0  0  0  0  0  0  0  0
    3.3316  -13.2844    3.6247 C   0  0  1  0  0  0  0  0  0  0  0  0
    2.1304  -13.0964    3.0627 F   0  0  0  0  0  0  0  0  0  0  0  0
    4.0461  -14.0975    2.8677 F   0  0  0  0  0  0  0  0  0  0  0  0
    3.0802  -13.9575    4.8008 F   0  0  0  0  0  0  0  0  0  0  0  0
    3.8843   -7.5846    1.6791 N   0  0  0  0  0  0  0  0  0  0  0  0
    4.0263   -6.6752    0.6320 C   0  0  0  0  0  0  0  0  0  0  0  0
    6.4834    0.2369    1.4926 H   0  0  0  0  0  0  0  0  0  0  0  0
    6.0983    1.3758    0.1739 H   0  0  0  0  0  0  0  0  0  0  0  0
    5.4972   -0.2953    0.1085 H   0  0  0  0  0  0  0  0  0  0  0  0
    4.6709    1.8202    2.2064 H   0  0  0  0  0  0  0  0  0  0  0  0
    4.0952    0.1567    2.1772 H   0  0  0  0  0  0  0  0  0  0  0  0
    3.7950    3.5157    0.8185 H   0  0  0  0  0  0  0  0  0  0  0  0
    2.0714    4.2881   -0.8088 H   0  0  0  0  0  0  0  0  0  0  0  0
    0.6013    2.6223   -1.9291 H   0  0  0  0  0  0  0  0  0  0  0  0
    1.0566   -0.8895   -2.0350 H   0  0  0  0  0  0  0  0  0  0  0  0
    0.0002    0.4684   -2.4293 H   0  0  0  0  0  0  0  0  0  0  0  0
   -0.1193   -1.1335    0.2088 H   0  0  0  0  0  0  0  0  0  0  0  0
   -1.2597   -1.2701   -1.1488 H   0  0  0  0  0  0  0  0  0  0  0  0
   -1.1754    0.2400   -0.2053 H   0  0  0  0  0  0  0  0  0  0  0  0
    2.6919   -1.1416    1.2685 H   0  0  0  0  0  0  0  0  0  0  0  0
    3.9877   -4.0357    3.8133 H   0  0  0  0  0  0  0  0  0  0  0  0
    4.0949   -5.7750    3.3607 H   0  0  0  0  0  0  0  0  0  0  0  0
    2.5021   -5.0154    3.6545 H   0  0  0  0  0  0  0  0  0  0  0  0
    4.0546   -4.1747   -2.4579 H   0  0  0  0  0  0  0  0  0  0  0  0
    2.7644   -5.3373   -2.1365 H   0  0  0  0  0  0  0  0  0  0  0  0
    5.7587   -5.7069   -1.5845 H   0  0  0  0  0  0  0  0  0  0  0  0
    4.7827   -6.6394   -2.7308 H   0  0  0  0  0  0  0  0  0  0  0  0
    5.0642   -8.9003   -1.7402 H   0  0  0  0  0  0  0  0  0  0  0  0
    4.3607  -10.7284    2.0620 H   0  0  0  0  0  0  0  0  0  0  0  0
    2.8341   -7.7654    3.6413 H   0  0  0  0  0  0  0  0  0  0  0  0
    1.7449   -7.8728    5.8888 H   0  0  0  0  0  0  0  0  0  0  0  0
   -0.7217  -10.9705    9.3061 H   0  0  0  0  0  0  0  0  0  0  0  0
    0.9243  -10.6256    9.8338 H   0  0  0  0  0  0  0  0  0  0  0  0
    0.0689  -12.7204   10.8413 H   0  0  0  0  0  0  0  0  0  0  0  0
    1.4926  -13.0478    9.8476 H   0  0  0  0  0  0  0  0  0  0  0  0
   -1.4030  -13.4409    8.8702 H   0  0  0  0  0  0  0  0  0  0  0  0
   -0.4804  -14.7110    9.7073 H   0  0  0  0  0  0  0  0  0  0  0  0
   -0.0137  -16.3034    7.9529 H   0  0  0  0  0  0  0  0  0  0  0  0
    1.5620  -15.6516    8.4556 H   0  0  0  0  0  0  0  0  0  0  0  0
    1.1599  -15.7294    6.7066 H   0  0  0  0  0  0  0  0  0  0  0  0
   -0.4972  -13.7817    5.9315 H   0  0  0  0  0  0  0  0  0  0  0  0
    1.2201  -13.5151    6.1761 H   0  0  0  0  0  0  0  0  0  0  0  0
   -1.1131  -11.7392    7.1479 H   0  0  0  0  0  0  0  0  0  0  0  0
    0.0801  -11.3986    5.8969 H   0  0  0  0  0  0  0  0  0  0  0  0
    2.8430  -12.0311    6.1821 H   0  0  0  0  0  0  0  0  0  0  0  0
  1  2  1  0
  1 50  1  0
  1 51  1  0
  1 52  1  0
  2  3  1  0
  2 53  1  0
  2 54  1  0
  3  4  2  0
  3 10  1  0
  4  5  1  0
  4 55  1  0
  5  6  2  0
  5 56  1  0
  6  7  1  0
  6 57  1  0
  7  8  1  0
  7 10  2  0
  8  9  1  0
  8 58  1  0
  8 59  1  0
  9 60  1  0
  9 61  1  0
  9 62  1  0
 10 11  1  0
 11 12  1  0
 11 63  1  0
 12 13  2  0
 12 14  1  0
 14 15  2  0
 14 19  1  0
 15 16  1  0
 16 17  1  0
 16 18  1  0
 17 64  1  0
 17 65  1  0
 17 66  1  0
 18 19  2  0
 18 49  1  0
 19 20  1  0
 20 21  1  0
 20 67  1  0
 20 68  1  0
 21 22  1  0
 21 69  1  0
 21 70  1  0
 22 23  1  0
 22 49  2  0
 23 24  2  0
 23 71  1  0
 24 25  1  0
 25 26  1  0
 25 48  2  0
 26 27  1  0
 26 72  1  0
 27 28  2  0
 27 42  1  0
 28 29  1  0
 28 73  1  0
 29 30  2  0
 29 74  1  0
 30 31  1  0
 30 41  1  0
 31 32  2  0
 31 33  1  0
 33 34  1  0
 33 40  1  0
 34 35  1  0
 34 75  1  0
 34 76  1  0
 35 36  1  0
 35 77  1  0
 35 78  1  0
 36 37  1  0
 36 79  1  0
 36 80  1  0
 37 38  1  0
 37 39  1  0
 38 81  1  0
 38 82  1  0
 38 83  1  0
 39 40  1  0
 39 84  1  0
 39 85  1  0
 40 86  1  0
 40 87  1  0
 41 42  2  0
 41 88  1  0
 42 43  1  0
 43 44  1  0
 44 45  1  6
 44 46  1  0
 44 47  1  0
 48 49  1  0
M  END

