
     RDKit          3D

 67 70  0  0  0  0  0  0  0  0999 V2000
    6.6027   -4.2661  -10.8215 C   0  0  0  0  0  0  0  0  0  0  0  0
    6.8059   -3.6650   -9.7909 C   0  0  0  0  0  0  0  0  0  0  0  0
    7.0554   -2.9150   -8.5610 C   0  0  0  0  0  0  0  0  0  0  0  0
    7.1918   -3.8004   -7.4647 O   0  0  0  0  0  0  0  0  0  0  0  0
    7.4772   -3.1544   -6.2372 C   0  0  0  0  0  0  0  0  0  0  0  0
    7.6342   -4.2814   -5.2179 C   0  0  1  0  0  0  0  0  0  0  0  0
    6.6368   -4.7206   -5.0299 H   0  0  0  0  0  0  0  0  0  0  0  0
    8.5157   -5.2657   -5.7349 O   0  0  0  0  0  0  0  0  0  0  0  0
    8.1846   -3.7164   -3.9084 C   0  0  0  0  0  0  0  0  0  0  0  0
    8.1875   -4.6288   -2.7587 N   0  0  0  0  0  0  0  0  0  0  0  0
    7.1632   -4.4234   -1.6913 C   0  0  0  0  0  0  0  0  0  0  0  0
    5.7508   -4.2838   -2.1572 C   0  0  0  0  0  0  0  0  0  0  0  0
    4.8681   -5.2985   -2.6356 C   0  0  0  0  0  0  0  0  0  0  0  0
    5.1588   -6.7681   -2.8543 C   0  0  1  0  0  0  0  0  0  0  0  0
    4.8738   -7.5703   -1.5691 C   0  0  0  0  0  0  0  0  0  0  0  0
    4.3771   -7.3379   -4.0459 C   0  0  0  0  0  0  0  0  0  0  0  0
    3.6446   -4.8262   -2.7992 N   0  0  0  0  0  0  0  0  0  0  0  0
    3.6864   -3.5166   -2.4348 N   0  0  0  0  0  0  0  0  0  0  0  0
    2.5006   -2.7285   -2.5374 C   0  0  0  0  0  0  0  0  0  0  0  0
    2.3023   -1.5920   -1.7400 C   0  0  0  0  0  0  0  0  0  0  0  0
    1.1199   -0.8594   -1.8721 C   0  0  0  0  0  0  0  0  0  0  0  0
    0.1318   -1.2518   -2.7784 C   0  0  0  0  0  0  0  0  0  0  0  0
    0.3337   -2.3922   -3.5622 C   0  0  0  0  0  0  0  0  0  0  0  0
    1.5120   -3.1302   -3.4485 C   0  0  0  0  0  0  0  0  0  0  0  0
    4.9442   -3.1470   -2.0400 C   0  0  0  0  0  0  0  0  0  0  0  0
    5.1891   -1.9223   -1.5830 O   0  0  0  0  0  0  0  0  0  0  0  0
    6.2249   -1.1313   -2.1860 C   0  0  0  0  0  0  0  0  0  0  0  0
    7.2251   -0.6453   -1.3831 C   0  0  0  0  0  0  0  0  0  0  0  0
    8.2731    0.1461   -1.9464 C   0  0  0  0  0  0  0  0  0  0  0  0
    8.2473    0.3777   -3.3684 C   0  0  0  0  0  0  0  0  0  0  0  0
    7.2153   -0.1212   -4.1177 C   0  0  0  0  0  0  0  0  0  0  0  0
    7.2179    0.0808   -5.4743 F   0  0  0  0  0  0  0  0  0  0  0  0
    6.1425   -0.9201   -3.6083 C   0  0  0  0  0  0  0  0  0  0  0  0
    9.2017   -5.5226   -2.4863 C   0  0  1  0  0  0  0  0  0  0  0  0
    9.4487   -6.8407   -3.3851 C   0  0  0  0  0  0  0  0  0  0  0  0
   10.4323   -5.7397   -3.3330 C   0  0  0  0  0  0  0  0  0  0  0  0
    6.4179   -4.7998  -11.7350 H   0  0  0  0  0  0  0  0  0  0  0  0
    6.2239   -2.2050   -8.3809 H   0  0  0  0  0  0  0  0  0  0  0  0
    7.9722   -2.3014   -8.6799 H   0  0  0  0  0  0  0  0  0  0  0  0
    6.6789   -2.4583   -5.9335 H   0  0  0  0  0  0  0  0  0  0  0  0
    8.4151   -2.5690   -6.3172 H   0  0  0  0  0  0  0  0  0  0  0  0
    8.3046   -5.3247   -6.6830 H   0  0  0  0  0  0  0  0  0  0  0  0
    7.5648   -2.8545   -3.6333 H   0  0  0  0  0  0  0  0  0  0  0  0
    9.2145   -3.3694   -4.0649 H   0  0  0  0  0  0  0  0  0  0  0  0
    7.4691   -3.5156   -1.1557 H   0  0  0  0  0  0  0  0  0  0  0  0
    7.2675   -5.2741   -1.0021 H   0  0  0  0  0  0  0  0  0  0  0  0
    6.2359   -6.8645   -3.0763 H   0  0  0  0  0  0  0  0  0  0  0  0
    3.8056   -7.5039   -1.3098 H   0  0  0  0  0  0  0  0  0  0  0  0
    5.4461   -7.1851   -0.7094 H   0  0  0  0  0  0  0  0  0  0  0  0
    5.1312   -8.6342   -1.7010 H   0  0  0  0  0  0  0  0  0  0  0  0
    3.2949   -7.2355   -3.8787 H   0  0  0  0  0  0  0  0  0  0  0  0
    4.6081   -8.4057   -4.1891 H   0  0  0  0  0  0  0  0  0  0  0  0
    4.6195   -6.8044   -4.9781 H   0  0  0  0  0  0  0  0  0  0  0  0
    3.0669   -1.2822   -1.0312 H   0  0  0  0  0  0  0  0  0  0  0  0
    0.9735    0.0277   -1.2509 H   0  0  0  0  0  0  0  0  0  0  0  0
   -0.7903   -0.6732   -2.8737 H   0  0  0  0  0  0  0  0  0  0  0  0
   -0.4313   -2.7112   -4.2747 H   0  0  0  0  0  0  0  0  0  0  0  0
    1.6803   -4.0224   -4.0501 H   0  0  0  0  0  0  0  0  0  0  0  0
    7.2089   -0.8761   -0.3143 H   0  0  0  0  0  0  0  0  0  0  0  0
    9.0224    0.6195   -1.3138 H   0  0  0  0  0  0  0  0  0  0  0  0
    9.0442    0.9323   -3.8692 H   0  0  0  0  0  0  0  0  0  0  0  0
    5.1728   -0.9111   -4.1165 H   0  0  0  0  0  0  0  0  0  0  0  0
    9.2717   -5.7717   -1.4255 H   0  0  0  0  0  0  0  0  0  0  0  0
    8.8257   -6.8983   -4.2775 H   0  0  0  0  0  0  0  0  0  0  0  0
    9.5773   -7.7422   -2.7832 H   0  0  0  0  0  0  0  0  0  0  0  0
   10.5060   -5.1435   -4.2441 H   0  0  0  0  0  0  0  0  0  0  0  0
   11.3572   -5.8747   -2.7655 H   0  0  0  0  0  0  0  0  0  0  0  0
  1  2  3  0
  1 37  1  0
  2  3  1  0
  3  4  1  0
  3 38  1  0
  3 39  1  0
  4  5  1  0
  5  6  1  0
  5 40  1  0
  5 41  1  0
  6  7  1  1
  6  8  1  0
  6  9  1  0
  8 42  1  0
  9 10  1  0
  9 43  1  0
  9 44  1  0
 10 11  1  0
 10 34  1  0
 11 12  1  0
 11 45  1  0
 11 46  1  0
 12 13  1  0
 12 25  2  0
 13 14  1  0
 13 17  2  0
 14 15  1  0
 14 16  1  0
 14 47  1  6
 15 48  1  0
 15 49  1  0
 15 50  1  0
 16 51  1  0
 16 52  1  0
 16 53  1  0
 17 18  1  0
 18 19  1  0
 18 25  1  0
 19 20  2  0
 19 24  1  0
 20 21  1  0
 20 54  1  0
 21 22  2  0
 21 55  1  0
 22 23  1  0
 22 56  1  0
 23 24  2  0
 23 57  1  0
 24 58  1  0
 25 26  1  0
 26 27  1  0
 27 28  2  0
 27 33  1  0
 28 29  1  0
 28 59  1  0
 29 30  2  0
 29 60  1  0
 30 31  1  0
 30 61  1  0
 31 32  1  0
 31 33  2  0
 33 62  1  0
 34 35  1  0
 34 36  1  0
 34 63  1  1
 35 36  1  0
 35 64  1  0
 35 65  1  0
 36 66  1  0
 36 67  1  0
M  END

