
     RDKit          3D

 33 34  0  0  0  0  0  0  0  0999 V2000
    2.3055    0.5300    1.7471 N   0  0  0  0  0  0  0  0  0  0  0  0
    1.9528    0.3388    0.4754 C   0  0  0  0  0  0  0  0  0  0  0  0
    0.9681   -0.2407    0.0721 O   0  0  0  0  0  0  0  0  0  0  0  0
    2.9930    0.9408   -0.6367 C   0  0  1  0  0  0  0  0  0  0  0  0
    2.2216    1.2557   -1.9265 C   0  0  0  0  0  0  0  0  0  0  0  0
    1.4068    2.5431   -1.8036 C   0  0  0  0  0  0  0  0  0  0  0  0
    2.3086    3.7004   -1.3710 C   0  0  0  0  0  0  0  0  0  0  0  0
    3.0728    3.3613   -0.0849 C   0  0  0  0  0  0  0  0  0  0  0  0
    3.7017    2.0477   -0.1251 N   0  0  0  0  0  0  0  0  0  0  0  0
    5.0009    1.8748    0.5260 C   0  0  0  0  0  0  0  0  0  0  0  0
    4.9292    1.5239    1.7787 N   0  0  0  0  0  0  0  0  0  0  0  0
    6.0767    1.3559    2.5090 C   0  0  0  0  0  0  0  0  0  0  0  0
    7.3099    1.5525    1.8784 C   0  0  0  0  0  0  0  0  0  0  0  0
    8.4260    1.3583    2.5955 F   0  0  0  0  0  0  0  0  0  0  0  0
    7.4114    1.9180    0.5532 C   0  0  0  0  0  0  0  0  0  0  0  0
    6.1943    2.1246   -0.2171 C   0  0  0  0  0  0  0  0  0  0  0  0
    6.1546    2.5262   -1.6045 C   0  0  0  0  0  0  0  0  0  0  0  0
    5.1329    2.6051   -2.2883 O   0  0  0  0  0  0  0  0  0  0  0  0
    7.3428    2.8400   -2.1991 O   0  0  0  0  0  0  0  0  0  0  0  0
    1.7219    0.1011    2.4586 H   0  0  0  0  0  0  0  0  0  0  0  0
    3.2429    0.9194    1.9896 H   0  0  0  0  0  0  0  0  0  0  0  0
    3.7002    0.1127   -0.7903 H   0  0  0  0  0  0  0  0  0  0  0  0
    1.5784    0.3916   -2.1435 H   0  0  0  0  0  0  0  0  0  0  0  0
    2.9749    1.3610   -2.7193 H   0  0  0  0  0  0  0  0  0  0  0  0
    0.5828    2.4003   -1.0819 H   0  0  0  0  0  0  0  0  0  0  0  0
    0.9344    2.7754   -2.7712 H   0  0  0  0  0  0  0  0  0  0  0  0
    1.7260    4.6182   -1.1934 H   0  0  0  0  0  0  0  0  0  0  0  0
    3.0504    3.9094   -2.1544 H   0  0  0  0  0  0  0  0  0  0  0  0
    2.3823    3.3640    0.7837 H   0  0  0  0  0  0  0  0  0  0  0  0
    3.8581    4.0969    0.1260 H   0  0  0  0  0  0  0  0  0  0  0  0
    6.0002    1.0594    3.5536 H   0  0  0  0  0  0  0  0  0  0  0  0
    8.4073    2.0021    0.1166 H   0  0  0  0  0  0  0  0  0  0  0  0
    8.0498    2.8683   -1.5416 H   0  0  0  0  0  0  0  0  0  0  0  0
  1  2  1  0
  1 20  1  0
  1 21  1  0
  2  3  2  0
  2  4  1  0
  4  5  1  0
  4  9  1  0
  4 22  1  6
  5  6  1  0
  5 23  1  0
  5 24  1  0
  6  7  1  0
  6 25  1  0
  6 26  1  0
  7  8  1  0
  7 27  1  0
  7 28  1  0
  8  9  1  0
  8 29  1  0
  8 30  1  0
  9 10  1  0
 10 11  2  0
 10 16  1  0
 11 12  1  0
 12 13  2  0
 12 31  1  0
 13 14  1  0
 13 15  1  0
 15 16  2  0
 15 32  1  0
 16 17  1  0
 17 18  2  0
 17 19  1  0
 19 33  1  0
M  END

