
     RDKit          3D

 37 38  0  0  0  0  0  0  0  0999 V2000
   11.1522   -2.9635    0.3183 C   0  0  0  0  0  0  0  0  0  0  0  0
   10.6192   -1.8963    0.5234 C   0  0  0  0  0  0  0  0  0  0  0  0
   10.0089   -0.5869    0.7604 C   0  0  0  0  0  0  0  0  0  0  0  0
    8.6159   -0.7281    0.9024 O   0  0  0  0  0  0  0  0  0  0  0  0
    7.8588    0.3963    1.1315 C   0  0  0  0  0  0  0  0  0  0  0  0
    8.3873    1.6747    1.2349 C   0  0  0  0  0  0  0  0  0  0  0  0
    7.5419    2.7854    1.4721 C   0  0  0  0  0  0  0  0  0  0  0  0
    6.1628    2.5796    1.6018 C   0  0  0  0  0  0  0  0  0  0  0  0
    5.6228    1.3034    1.4998 C   0  0  0  0  0  0  0  0  0  0  0  0
    6.4440    0.1546    1.2604 C   0  0  0  0  0  0  0  0  0  0  0  0
    5.9257   -1.1579    1.1510 C   0  0  0  0  0  0  0  0  0  0  0  0
    4.6242   -1.4563    1.2554 N   0  0  0  0  0  0  0  0  0  0  0  0
    4.3776   -2.8538    1.1090 N   0  0  0  0  0  0  0  0  0  0  0  0
    3.1359   -3.3174    1.1740 C   0  0  0  0  0  0  0  0  0  0  0  0
    2.7305   -4.4565    1.0764 O   0  0  0  0  0  0  0  0  0  0  0  0
    2.2378   -2.1649    1.4002 N   0  0  0  0  0  0  0  0  0  0  0  0
    0.9173   -2.1447    1.5286 C   0  0  0  0  0  0  0  0  0  0  0  0
    0.0983   -3.3343    1.4623 C   0  0  0  0  0  0  0  0  0  0  0  0
   -1.2680   -3.2249    1.6054 C   0  0  0  0  0  0  0  0  0  0  0  0
   -1.8795   -1.9702    1.8153 C   0  0  0  0  0  0  0  0  0  0  0  0
   -1.0938   -0.7969    1.8828 C   0  0  0  0  0  0  0  0  0  0  0  0
    0.2725   -0.8688    1.7445 C   0  0  0  0  0  0  0  0  0  0  0  0
   11.6219   -3.9126    0.1421 H   0  0  0  0  0  0  0  0  0  0  0  0
   10.2538    0.0895   -0.0832 H   0  0  0  0  0  0  0  0  0  0  0  0
   10.4552   -0.1340    1.6686 H   0  0  0  0  0  0  0  0  0  0  0  0
    9.4601    1.8427    1.1353 H   0  0  0  0  0  0  0  0  0  0  0  0
    7.9713    3.7859    1.5513 H   0  0  0  0  0  0  0  0  0  0  0  0
    5.5022    3.4321    1.7855 H   0  0  0  0  0  0  0  0  0  0  0  0
    4.5478    1.1512    1.6028 H   0  0  0  0  0  0  0  0  0  0  0  0
    6.6502   -1.9615    0.9700 H   0  0  0  0  0  0  0  0  0  0  0  0
    5.1327   -3.5190    0.9569 H   0  0  0  0  0  0  0  0  0  0  0  0
    2.8435   -1.3139    1.4452 H   0  0  0  0  0  0  0  0  0  0  0  0
    0.5969   -4.2872    1.2994 H   0  0  0  0  0  0  0  0  0  0  0  0
   -1.8862   -4.1231    1.5553 H   0  0  0  0  0  0  0  0  0  0  0  0
   -2.9632   -1.9045    1.9259 H   0  0  0  0  0  0  0  0  0  0  0  0
   -1.5744    0.1692    2.0455 H   0  0  0  0  0  0  0  0  0  0  0  0
    0.8926    0.0265    1.7941 H   0  0  0  0  0  0  0  0  0  0  0  0
  1  2  3  0
  1 23  1  0
  2  3  1  0
  3  4  1  0
  3 24  1  0
  3 25  1  0
  4  5  1  0
  5  6  2  0
  5 10  1  0
  6  7  1  0
  6 26  1  0
  7  8  2  0
  7 27  1  0
  8  9  1  0
  8 28  1  0
  9 10  2  0
  9 29  1  0
 10 11  1  0
 11 12  2  0
 11 30  1  0
 12 13  1  0
 13 14  1  0
 13 31  1  0
 14 15  2  0
 14 16  1  0
 16 17  1  0
 16 32  1  0
 17 18  2  0
 17 22  1  0
 18 19  1  0
 18 33  1  0
 19 20  2  0
 19 34  1  0
 20 21  1  0
 20 35  1  0
 21 22  2  0
 21 36  1  0
 22 37  1  0
M  END

