
     RDKit          3D

 41 42  0  0  0  0  0  0  0  0999 V2000
    2.6445    0.8530   -0.9824 C   0  0  0  0  0  0  0  0  0  0  0  0
    2.5309   -0.0289    0.2728 C   0  0  1  0  0  0  0  0  0  0  0  0
    1.0606   -0.1965    0.6975 C   0  0  0  0  0  0  0  0  0  0  0  0
    0.8718   -0.8702    2.0406 C   0  0  1  0  0  0  0  0  0  0  0  0
    0.8733   -0.0565    3.3121 C   0  0  0  0  0  0  0  0  0  0  0  0
   -0.4060   -0.6875    2.8170 C   0  0  0  0  0  0  0  0  0  0  0  0
    3.1432   -1.3538    0.1205 N   0  0  0  0  0  0  0  0  0  0  0  0
    4.6022   -1.4370    0.0324 C   0  0  1  0  0  0  0  0  0  0  0  0
    5.2620   -1.1122    1.3846 C   0  0  0  0  0  0  0  0  0  0  0  0
    5.0100   -2.8305   -0.4272 C   0  0  0  0  0  0  0  0  0  0  0  0
    6.0624   -2.9983   -1.3406 C   0  0  0  0  0  0  0  0  0  0  0  0
    6.4749   -4.2702   -1.7415 C   0  0  0  0  0  0  0  0  0  0  0  0
    5.8235   -5.3884   -1.2173 C   0  0  0  0  0  0  0  0  0  0  0  0
    6.3400   -7.0277   -1.7288 S   0  0  1  0  0  0  0  0  0  0  0  0
    7.4925   -7.4637   -0.5688 N   0  0  0  0  0  0  0  0  0  0  0  0
    5.1995   -7.9300   -1.5505 O   0  0  0  0  0  0  0  0  0  0  0  0
    7.0464   -6.8929   -3.0056 O   0  0  0  0  0  0  0  0  0  0  0  0
    4.7622   -5.2520   -0.3187 C   0  0  0  0  0  0  0  0  0  0  0  0
    4.3644   -3.9737    0.0743 C   0  0  0  0  0  0  0  0  0  0  0  0
    2.2271    1.8573   -0.8043 H   0  0  0  0  0  0  0  0  0  0  0  0
    2.0889    0.4053   -1.8248 H   0  0  0  0  0  0  0  0  0  0  0  0
    3.6906    0.9837   -1.3006 H   0  0  0  0  0  0  0  0  0  0  0  0
    3.0539    0.4786    1.1007 H   0  0  0  0  0  0  0  0  0  0  0  0
    0.5328   -0.7732   -0.0868 H   0  0  0  0  0  0  0  0  0  0  0  0
    0.5808    0.7976    0.7145 H   0  0  0  0  0  0  0  0  0  0  0  0
    1.3441   -1.8552    2.1034 H   0  0  0  0  0  0  0  0  0  0  0  0
    0.9719    1.0308    3.2254 H   0  0  0  0  0  0  0  0  0  0  0  0
    1.3514   -0.4753    4.2024 H   0  0  0  0  0  0  0  0  0  0  0  0
   -1.1712   -0.0271    2.3962 H   0  0  0  0  0  0  0  0  0  0  0  0
   -0.8115   -1.5428    3.3653 H   0  0  0  0  0  0  0  0  0  0  0  0
    2.7287   -1.8195   -0.6875 H   0  0  0  0  0  0  0  0  0  0  0  0
    5.0183   -0.7245   -0.7122 H   0  0  0  0  0  0  0  0  0  0  0  0
    4.9038   -1.8045    2.1620 H   0  0  0  0  0  0  0  0  0  0  0  0
    5.0348   -0.0849    1.7080 H   0  0  0  0  0  0  0  0  0  0  0  0
    6.3563   -1.2039    1.3098 H   0  0  0  0  0  0  0  0  0  0  0  0
    6.5618   -2.1179   -1.7548 H   0  0  0  0  0  0  0  0  0  0  0  0
    7.2784   -4.4015   -2.4683 H   0  0  0  0  0  0  0  0  0  0  0  0
    7.1859   -8.3049   -0.0801 H   0  0  0  0  0  0  0  0  0  0  0  0
    8.4005   -7.5930   -1.0151 H   0  0  0  0  0  0  0  0  0  0  0  0
    4.2496   -6.1410    0.0530 H   0  0  0  0  0  0  0  0  0  0  0  0
    3.5319   -3.8506    0.7697 H   0  0  0  0  0  0  0  0  0  0  0  0
  1  2  1  0
  1 20  1  0
  1 21  1  0
  1 22  1  0
  2  3  1  0
  2  7  1  0
  2 23  1  1
  3  4  1  0
  3 24  1  0
  3 25  1  0
  4  5  1  0
  4  6  1  0
  4 26  1  1
  5  6  1  0
  5 27  1  0
  5 28  1  0
  6 29  1  0
  6 30  1  0
  7  8  1  0
  7 31  1  0
  8  9  1  0
  8 10  1  0
  8 32  1  6
  9 33  1  0
  9 34  1  0
  9 35  1  0
 10 11  2  0
 10 19  1  0
 11 12  1  0
 11 36  1  0
 12 13  2  0
 12 37  1  0
 13 14  1  0
 13 18  1  0
 14 15  1  1
 14 16  2  0
 14 17  2  0
 15 38  1  0
 15 39  1  0
 18 19  2  0
 18 40  1  0
 19 41  1  0
M  END

