
     RDKit          3D

 42 43  0  0  0  0  0  0  0  0999 V2000
    2.8743   -0.5937    3.8226 C   0  0  0  0  0  0  0  0  0  0  0  0
    3.7813   -1.6317    4.1887 O   0  0  0  0  0  0  0  0  0  0  0  0
    5.0521   -1.2323    4.4660 C   0  0  0  0  0  0  0  0  0  0  0  0
    5.3921   -0.0731    4.4059 O   0  0  0  0  0  0  0  0  0  0  0  0
    5.9596   -2.4068    4.7829 C   0  0  0  0  0  0  0  0  0  0  0  0
    6.2712   -3.2113    3.5468 C   0  0  0  0  0  0  0  0  0  0  0  0
    7.3410   -2.8922    2.6897 C   0  0  0  0  0  0  0  0  0  0  0  0
    7.5869   -3.5235    1.4720 C   0  0  0  0  0  0  0  0  0  0  0  0
    6.6681   -4.5416    1.0027 C   0  0  0  0  0  0  0  0  0  0  0  0
    5.6329   -4.8667    1.8873 C   0  0  0  0  0  0  0  0  0  0  0  0
    4.4353   -5.9838    1.3147 S   0  0  1  0  0  0  0  0  0  0  0  0
    4.7752   -6.6883    0.0881 O   0  0  0  0  0  0  0  0  0  0  0  0
    3.6192   -6.5991    2.3491 O   0  0  0  0  0  0  0  0  0  0  0  0
    3.0687   -4.7807    0.5759 N   0  0  0  0  0  0  0  0  0  0  0  0
    1.9111   -4.4267    1.3235 C   0  0  0  0  0  0  0  0  0  0  0  0
    0.8047   -4.0731    0.3143 C   0  0  1  0  0  0  0  0  0  0  0  0
    0.0782   -4.9009    0.2547 H   0  0  0  0  0  0  0  0  0  0  0  0
    0.0490   -2.8057    0.7536 C   0  0  0  0  0  0  0  0  0  0  0  0
    0.3104   -2.2244    1.7715 O   0  0  0  0  0  0  0  0  0  0  0  0
   -0.9254   -2.3844   -0.0580 O   0  0  0  0  0  0  0  0  0  0  0  0
    1.5484   -3.9424   -1.0527 C   0  0  2  0  0  0  0  0  0  0  0  0
    1.7257   -2.8849   -1.3022 H   0  0  0  0  0  0  0  0  0  0  0  0
    0.7855   -4.5409   -2.2241 C   0  0  1  0  0  0  0  0  0  0  0  0
    0.5327   -5.8436   -2.0440 F   0  0  0  0  0  0  0  0  0  0  0  0
   -0.4173   -3.9256   -2.3838 F   0  0  0  0  0  0  0  0  0  0  0  0
    1.4604   -4.4006   -3.3648 F   0  0  0  0  0  0  0  0  0  0  0  0
    2.9005   -4.6594   -0.8379 C   0  0  0  0  0  0  0  0  0  0  0  0
    5.3769   -4.2805    3.1285 C   0  0  0  0  0  0  0  0  0  0  0  0
    1.9287   -1.0796    3.5527 H   0  0  0  0  0  0  0  0  0  0  0  0
    3.2604   -0.0144    2.9696 H   0  0  0  0  0  0  0  0  0  0  0  0
    2.7174    0.1043    4.6602 H   0  0  0  0  0  0  0  0  0  0  0  0
    5.4701   -3.0417    5.5441 H   0  0  0  0  0  0  0  0  0  0  0  0
    6.8742   -1.9800    5.2200 H   0  0  0  0  0  0  0  0  0  0  0  0
    8.0238   -2.0944    3.0045 H   0  0  0  0  0  0  0  0  0  0  0  0
    8.4568   -3.2556    0.8723 H   0  0  0  0  0  0  0  0  0  0  0  0
    6.7827   -5.0344    0.0407 H   0  0  0  0  0  0  0  0  0  0  0  0
    2.1488   -3.5587    1.9756 H   0  0  0  0  0  0  0  0  0  0  0  0
    1.6657   -5.2430    2.0266 H   0  0  0  0  0  0  0  0  0  0  0  0
   -1.0133   -2.9386   -0.8501 H   0  0  0  0  0  0  0  0  0  0  0  0
    3.7660   -4.1366   -1.2775 H   0  0  0  0  0  0  0  0  0  0  0  0
    2.9268   -5.6799   -1.2731 H   0  0  0  0  0  0  0  0  0  0  0  0
    4.5756   -4.6305    3.7757 H   0  0  0  0  0  0  0  0  0  0  0  0
  1  2  1  0
  1 29  1  0
  1 30  1  0
  1 31  1  0
  2  3  1  0
  3  4  2  0
  3  5  1  0
  5  6  1  0
  5 32  1  0
  5 33  1  0
  6  7  2  0
  6 28  1  0
  7  8  1  0
  7 34  1  0
  8  9  2  0
  8 35  1  0
  9 10  1  0
  9 36  1  0
 11 10  1  1
 10 28  2  0
 11 12  2  0
 11 13  2  0
 11 14  1  0
 14 15  1  0
 14 27  1  0
 15 16  1  0
 15 37  1  0
 15 38  1  0
 16 17  1  6
 16 18  1  0
 16 21  1  0
 18 19  2  0
 18 20  1  0
 20 39  1  0
 21 22  1  1
 21 23  1  0
 21 27  1  0
 23 24  1  6
 23 25  1  0
 23 26  1  0
 27 40  1  0
 27 41  1  0
 28 42  1  0
M  END

