
     RDKit          3D

 67 72  0  0  0  0  0  0  0  0999 V2000
    7.4542    4.6931    1.2296 C   0  0  0  0  0  0  0  0  0  0  0  0
    7.1001    3.4900    0.5888 O   0  0  0  0  0  0  0  0  0  0  0  0
    5.7939    3.2564    0.2797 C   0  0  0  0  0  0  0  0  0  0  0  0
    4.7523    4.1350    0.5933 C   0  0  0  0  0  0  0  0  0  0  0  0
    3.4340    3.8470    0.1923 C   0  0  0  0  0  0  0  0  0  0  0  0
    2.2635    4.7791    0.5302 C   0  0  2  0  0  0  0  0  0  0  0  0
    1.5386    4.6793   -0.2923 H   0  0  0  0  0  0  0  0  0  0  0  0
    2.6883    6.2505    0.5973 C   0  0  0  0  0  0  0  0  0  0  0  0
    3.0024    6.8876   -0.6287 C   0  0  0  0  0  0  0  0  0  0  0  0
    3.4405    8.1942   -0.5965 C   0  0  0  0  0  0  0  0  0  0  0  0
    3.5871    8.8901    0.6083 C   0  0  0  0  0  0  0  0  0  0  0  0
    3.2939    8.3014    1.8185 C   0  0  0  0  0  0  0  0  0  0  0  0
    2.8297    6.9581    1.8115 C   0  0  0  0  0  0  0  0  0  0  0  0
    2.4627    6.3506    3.1618 C   0  0  1  0  0  0  0  0  0  0  0  0
    3.1971    6.6544    3.9200 H   0  0  0  0  0  0  0  0  0  0  0  0
    1.1751    6.8954    3.5981 O   0  0  0  0  0  0  0  0  0  0  0  0
    1.1527    7.9150    4.4714 C   0  0  0  0  0  0  0  0  0  0  0  0
    2.1428    8.4403    4.9282 O   0  0  0  0  0  0  0  0  0  0  0  0
   -0.2435    8.3456    4.8094 C   0  0  0  0  0  0  0  0  0  0  0  0
   -0.3649    9.4527    5.6652 C   0  0  0  0  0  0  0  0  0  0  0  0
   -1.6168    9.9288    6.0483 C   0  0  0  0  0  0  0  0  0  0  0  0
   -2.7709    9.2913    5.5832 C   0  0  0  0  0  0  0  0  0  0  0  0
   -2.6656    8.1840    4.7395 C   0  0  0  0  0  0  0  0  0  0  0  0
   -1.4103    7.7047    4.3360 C   0  0  0  0  0  0  0  0  0  0  0  0
   -1.4076    6.4662    3.4645 C   0  0  0  0  0  0  0  0  0  0  0  0
   -1.5590    5.3575    3.8981 O   0  0  0  0  0  0  0  0  0  0  0  0
   -1.3164    6.6816    2.1355 O   0  0  0  0  0  0  0  0  0  0  0  0
    2.3363    4.8404    3.0645 C   0  0  1  0  0  0  0  0  0  0  0  0
    3.3612    4.4497    2.9436 H   0  0  0  0  0  0  0  0  0  0  0  0
    1.6443    4.0303    4.1660 C   0  0  0  0  0  0  0  0  0  0  0  0
    1.2264    2.8256    3.4976 O   0  0  0  0  0  0  0  0  0  0  0  0
    1.1253    3.0054    2.1518 C   0  0  0  0  0  0  0  0  0  0  0  0
    0.7386    2.1457    1.4127 O   0  0  0  0  0  0  0  0  0  0  0  0
    1.5294    4.4387    1.8363 C   0  0  2  0  0  0  0  0  0  0  0  0
    0.5786    5.0036    1.8363 H   0  0  0  0  0  0  0  0  0  0  0  0
    4.0204   10.1600    0.3469 O   0  0  0  0  0  0  0  0  0  0  0  0
    4.2814   10.2133   -1.0531 C   0  0  0  0  0  0  0  0  0  0  0  0
    3.7769    9.0132   -1.6348 O   0  0  0  0  0  0  0  0  0  0  0  0
    3.1884    2.6770   -0.5229 C   0  0  0  0  0  0  0  0  0  0  0  0
    4.2229    1.7774   -0.8378 C   0  0  0  0  0  0  0  0  0  0  0  0
    3.8470    0.7065   -1.5803 O   0  0  0  0  0  0  0  0  0  0  0  0
    4.5079   -0.5437   -1.4989 C   0  0  0  0  0  0  0  0  0  0  0  0
    5.5443    2.0587   -0.4362 C   0  0  0  0  0  0  0  0  0  0  0  0
    6.5716    1.2433   -0.8270 O   0  0  0  0  0  0  0  0  0  0  0  0
    7.3259    0.5902    0.1843 C   0  0  0  0  0  0  0  0  0  0  0  0
    8.5460    4.6740    1.3496 H   0  0  0  0  0  0  0  0  0  0  0  0
    6.9876    4.7843    2.2275 H   0  0  0  0  0  0  0  0  0  0  0  0
    7.1754    5.5766    0.6279 H   0  0  0  0  0  0  0  0  0  0  0  0
    4.9661    5.0664    1.1142 H   0  0  0  0  0  0  0  0  0  0  0  0
    2.9091    6.3509   -1.5743 H   0  0  0  0  0  0  0  0  0  0  0  0
    3.4051    8.8462    2.7569 H   0  0  0  0  0  0  0  0  0  0  0  0
    0.5529    9.9234    6.0217 H   0  0  0  0  0  0  0  0  0  0  0  0
   -1.6936   10.7924    6.7128 H   0  0  0  0  0  0  0  0  0  0  0  0
   -3.7582    9.6512    5.8831 H   0  0  0  0  0  0  0  0  0  0  0  0
   -3.5684    7.6760    4.3918 H   0  0  0  0  0  0  0  0  0  0  0  0
   -1.1221    7.6139    1.9575 H   0  0  0  0  0  0  0  0  0  0  0  0
    0.7535    4.5396    4.5635 H   0  0  0  0  0  0  0  0  0  0  0  0
    2.3064    3.7427    4.9952 H   0  0  0  0  0  0  0  0  0  0  0  0
    5.3729   10.2810   -1.2281 H   0  0  0  0  0  0  0  0  0  0  0  0
    3.7694   11.0843   -1.4948 H   0  0  0  0  0  0  0  0  0  0  0  0
    2.1788    2.4044   -0.8308 H   0  0  0  0  0  0  0  0  0  0  0  0
    3.8205   -1.2773   -1.9447 H   0  0  0  0  0  0  0  0  0  0  0  0
    4.6978   -0.8343   -0.4505 H   0  0  0  0  0  0  0  0  0  0  0  0
    5.4591   -0.5480   -2.0502 H   0  0  0  0  0  0  0  0  0  0  0  0
    8.0251   -0.0832   -0.3320 H   0  0  0  0  0  0  0  0  0  0  0  0
    6.6748   -0.0105    0.8460 H   0  0  0  0  0  0  0  0  0  0  0  0
    7.8952    1.3065    0.7948 H   0  0  0  0  0  0  0  0  0  0  0  0
  1  2  1  0
  1 46  1  0
  1 47  1  0
  1 48  1  0
  2  3  1  0
  3  4  2  0
  3 43  1  0
  4  5  1  0
  4 49  1  0
  5  6  1  0
  5 39  2  0
  6  7  1  6
  6  8  1  0
  6 34  1  0
  8  9  2  0
  8 13  1  0
  9 10  1  0
  9 50  1  0
 10 11  2  0
 10 38  1  0
 11 12  1  0
 11 36  1  0
 12 13  2  0
 12 51  1  0
 13 14  1  0
 14 15  1  1
 14 16  1  0
 14 28  1  0
 16 17  1  0
 17 18  2  0
 17 19  1  0
 19 20  2  0
 19 24  1  0
 20 21  1  0
 20 52  1  0
 21 22  2  0
 21 53  1  0
 22 23  1  0
 22 54  1  0
 23 24  2  0
 23 55  1  0
 24 25  1  0
 25 26  2  0
 25 27  1  0
 27 56  1  0
 28 29  1  6
 28 30  1  0
 28 34  1  0
 30 31  1  0
 30 57  1  0
 30 58  1  0
 31 32  1  0
 32 33  2  0
 32 34  1  0
 34 35  1  6
 36 37  1  0
 37 38  1  0
 37 59  1  0
 37 60  1  0
 39 40  1  0
 39 61  1  0
 40 41  1  0
 40 43  2  0
 41 42  1  0
 42 62  1  0
 42 63  1  0
 42 64  1  0
 43 44  1  0
 44 45  1  0
 45 65  1  0
 45 66  1  0
 45 67  1  0
M  END

