
     RDKit          3D

 30 32  0  0  0  0  0  0  0  0999 V2000
    3.3865    3.6539   -1.1161 Br  0  0  0  0  0  0  0  0  0  0  0  0
    4.0810    2.1037   -0.2465 C   0  0  0  0  0  0  0  0  0  0  0  0
    3.3212    1.5006    0.7743 C   0  0  0  0  0  0  0  0  0  0  0  0
    3.8009    0.3670    1.4276 C   0  0  0  0  0  0  0  0  0  0  0  0
    5.0441   -0.1509    1.0470 C   0  0  0  0  0  0  0  0  0  0  0  0
    5.9164   -1.5356    1.6594 S   0  0  0  0  0  0  0  0  0  0  0  0
    7.2143   -1.1893    0.4917 C   0  0  0  0  0  0  0  0  0  0  0  0
    8.4168   -2.0844    0.4123 C   0  0  0  0  0  0  0  0  0  0  0  0
    9.7279   -1.3120    0.1416 C   0  0  1  0  0  0  0  0  0  0  0  0
   10.2219   -0.4805    1.3409 C   0  0  0  0  0  0  0  0  0  0  0  0
   10.8298   -1.2763    2.4016 N   0  0  0  0  0  0  0  0  0  0  0  0
   11.8481   -2.1767    1.8699 C   0  0  0  0  0  0  0  0  0  0  0  0
   11.3331   -3.0136    0.6988 C   0  0  0  0  0  0  0  0  0  0  0  0
   10.7515   -2.1959   -0.3048 O   0  0  0  0  0  0  0  0  0  0  0  0
    7.0156   -0.1551   -0.2575 N   0  0  0  0  0  0  0  0  0  0  0  0
    5.8094    0.4581    0.0174 C   0  0  0  0  0  0  0  0  0  0  0  0
    5.3175    1.6013   -0.6360 C   0  0  0  0  0  0  0  0  0  0  0  0
    2.3549    1.9245    1.0514 H   0  0  0  0  0  0  0  0  0  0  0  0
    3.2104   -0.0993    2.2189 H   0  0  0  0  0  0  0  0  0  0  0  0
    8.2767   -2.7948   -0.4212 H   0  0  0  0  0  0  0  0  0  0  0  0
    8.4861   -2.6886    1.3306 H   0  0  0  0  0  0  0  0  0  0  0  0
    9.5347   -0.6387   -0.7062 H   0  0  0  0  0  0  0  0  0  0  0  0
    9.4003    0.1259    1.7542 H   0  0  0  0  0  0  0  0  0  0  0  0
   10.9846    0.2256    0.9682 H   0  0  0  0  0  0  0  0  0  0  0  0
   10.1230   -1.7993    2.9183 H   0  0  0  0  0  0  0  0  0  0  0  0
   12.2253   -2.8300    2.6745 H   0  0  0  0  0  0  0  0  0  0  0  0
   12.6993   -1.5635    1.5221 H   0  0  0  0  0  0  0  0  0  0  0  0
   10.6046   -3.7664    1.0685 H   0  0  0  0  0  0  0  0  0  0  0  0
   12.1510   -3.5658    0.2085 H   0  0  0  0  0  0  0  0  0  0  0  0
    5.9061    2.0663   -1.4269 H   0  0  0  0  0  0  0  0  0  0  0  0
  1  2  1  0
  2  3  2  0
  2 17  1  0
  3  4  1  0
  3 18  1  0
  4  5  2  0
  4 19  1  0
  5  6  1  0
  5 16  1  0
  6  7  1  0
  7  8  1  0
  7 15  2  0
  8  9  1  0
  8 20  1  0
  8 21  1  0
  9 10  1  0
  9 14  1  0
  9 22  1  6
 10 11  1  0
 10 23  1  0
 10 24  1  0
 11 12  1  0
 11 25  1  0
 12 13  1  0
 12 26  1  0
 12 27  1  0
 13 14  1  0
 13 28  1  0
 13 29  1  0
 15 16  1  0
 16 17  2  0
 17 30  1  0
M  END

