
     RDKit          3D

 39 41  0  0  0  0  0  0  0  0999 V2000
    1.4159   -0.1096    1.1443 O   0  0  0  0  0  0  0  0  0  0  0  0
    2.4914   -0.0667    0.5617 C   0  0  0  0  0  0  0  0  0  0  0  0
    3.0800   -1.3371   -0.0053 C   0  0  0  0  0  0  0  0  0  0  0  0
    4.3994   -1.7553    0.2319 C   0  0  0  0  0  0  0  0  0  0  0  0
    4.8880   -2.9256   -0.1830 N   0  0  0  0  0  0  0  0  0  0  0  0
    4.0885   -3.7437   -0.8647 C   0  0  0  0  0  0  0  0  0  0  0  0
    2.7546   -3.4198   -1.1280 C   0  0  0  0  0  0  0  0  0  0  0  0
    1.9882   -4.2851   -1.8003 F   0  0  0  0  0  0  0  0  0  0  0  0
    2.2262   -2.2149   -0.6864 C   0  0  0  0  0  0  0  0  0  0  0  0
    3.1895    1.0979    0.4062 N   0  0  0  0  0  0  0  0  0  0  0  0
    2.6191    2.3447    0.9380 C   0  0  0  0  0  0  0  0  0  0  0  0
    3.2355    3.4355    0.0618 C   0  0  0  0  0  0  0  0  0  0  0  0
    4.6001    2.8533   -0.3451 C   0  0  2  0  0  0  0  0  0  0  0  0
    5.1731    3.4656   -1.5379 N   0  0  0  0  0  0  0  0  0  0  0  0
    5.3314    4.9220   -1.5017 C   0  0  0  0  0  0  0  0  0  0  0  0
    6.5669    5.3820   -0.7161 C   0  0  0  0  0  0  0  0  0  0  0  0
    7.7511    4.7429   -1.2773 N   0  0  0  0  0  0  0  0  0  0  0  0
    7.6613    3.2882   -1.2562 C   0  0  0  0  0  0  0  0  0  0  0  0
    6.4111    2.8549   -2.0343 C   0  0  0  0  0  0  0  0  0  0  0  0
    4.2649    1.3627   -0.5592 C   0  0  0  0  0  0  0  0  0  0  0  0
    5.0808   -1.1243    0.8122 H   0  0  0  0  0  0  0  0  0  0  0  0
    4.4936   -4.6998   -1.2154 H   0  0  0  0  0  0  0  0  0  0  0  0
    1.1764   -1.9664   -0.8530 H   0  0  0  0  0  0  0  0  0  0  0  0
    2.8946    2.4641    2.0012 H   0  0  0  0  0  0  0  0  0  0  0  0
    1.5217    2.3045    0.8944 H   0  0  0  0  0  0  0  0  0  0  0  0
    3.3052    4.3960    0.5916 H   0  0  0  0  0  0  0  0  0  0  0  0
    2.6359    3.5883   -0.8510 H   0  0  0  0  0  0  0  0  0  0  0  0
    5.2690    2.9158    0.5431 H   0  0  0  0  0  0  0  0  0  0  0  0
    4.4221    5.3907   -1.0996 H   0  0  0  0  0  0  0  0  0  0  0  0
    5.4427    5.2701   -2.5436 H   0  0  0  0  0  0  0  0  0  0  0  0
    6.4222    5.1559    0.3665 H   0  0  0  0  0  0  0  0  0  0  0  0
    6.6695    6.4767   -0.8022 H   0  0  0  0  0  0  0  0  0  0  0  0
    8.5953    5.0626   -0.8075 H   0  0  0  0  0  0  0  0  0  0  0  0
    7.6198    2.8692   -0.2235 H   0  0  0  0  0  0  0  0  0  0  0  0
    8.5573    2.8612   -1.7369 H   0  0  0  0  0  0  0  0  0  0  0  0
    6.3201    1.7587   -2.0341 H   0  0  0  0  0  0  0  0  0  0  0  0
    6.5396    3.1683   -3.0850 H   0  0  0  0  0  0  0  0  0  0  0  0
    5.1326    0.7122   -0.3922 H   0  0  0  0  0  0  0  0  0  0  0  0
    3.9200    1.2160   -1.5990 H   0  0  0  0  0  0  0  0  0  0  0  0
  1  2  2  0
  2  3  1  0
  2 10  1  0
  3  4  2  0
  3  9  1  0
  4  5  1  0
  4 21  1  0
  5  6  2  0
  6  7  1  0
  6 22  1  0
  7  8  1  0
  7  9  2  0
  9 23  1  0
 10 11  1  0
 10 20  1  0
 11 12  1  0
 11 24  1  0
 11 25  1  0
 12 13  1  0
 12 26  1  0
 12 27  1  0
 13 14  1  0
 13 20  1  0
 13 28  1  1
 14 15  1  0
 14 19  1  0
 15 16  1  0
 15 29  1  0
 15 30  1  0
 16 17  1  0
 16 31  1  0
 16 32  1  0
 17 18  1  0
 17 33  1  0
 18 19  1  0
 18 34  1  0
 18 35  1  0
 19 36  1  0
 19 37  1  0
 20 38  1  0
 20 39  1  0
M  END

