
     RDKit          3D

 51 58  0  0  0  0  0  0  0  0999 V2000
    2.2546    0.9076   -3.1908 O   0  0  0  0  0  0  0  0  0  0  0  0
    2.4618   -0.0100   -2.0709 S   0  0  1  0  0  0  0  0  0  0  0  0
    1.3784   -0.8753   -1.6043 O   0  0  0  0  0  0  0  0  0  0  0  0
    3.9527   -0.9780   -2.3182 C   0  0  0  0  0  0  0  0  0  0  0  0
    4.9212   -0.6825   -1.3596 C   0  0  0  0  0  0  0  0  0  0  0  0
    4.5670    0.3684   -0.4434 C   0  0  0  0  0  0  0  0  0  0  0  0
    5.3439    0.9585    0.5779 C   0  0  0  0  0  0  0  0  0  0  0  0
    4.7701    1.9748    1.3404 C   0  0  0  0  0  0  0  0  0  0  0  0
    3.4564    2.4131    1.1031 C   0  0  0  0  0  0  0  0  0  0  0  0
    2.6741    1.8506    0.0768 C   0  0  0  0  0  0  0  0  0  0  0  0
    3.2453    0.8462   -0.6766 C   0  0  0  0  0  0  0  0  0  0  0  0
    6.1323   -1.5675   -1.5502 C   0  0  1  0  0  0  0  0  0  0  0  0
    7.4576   -0.8263   -1.4443 C   0  0  0  0  0  0  0  0  0  0  0  0
    8.1039   -1.2244   -0.2528 C   0  0  0  0  0  0  0  0  0  0  0  0
    7.3800   -2.2508    0.4287 C   0  0  0  0  0  0  0  0  0  0  0  0
    7.6210   -2.9776    1.6070 C   0  0  0  0  0  0  0  0  0  0  0  0
    6.7090   -3.9642    1.9932 C   0  0  0  0  0  0  0  0  0  0  0  0
    5.5638   -4.2463    1.2326 C   0  0  0  0  0  0  0  0  0  0  0  0
    5.3072   -3.5205    0.0567 C   0  0  0  0  0  0  0  0  0  0  0  0
    6.2068   -2.5383   -0.3333 C   0  0  0  0  0  0  0  0  0  0  0  0
    9.3024   -0.0331    0.2274 S   0  0  1  0  0  0  0  0  0  0  0  0
    8.7181    0.8185    1.3009 O   0  0  0  0  0  0  0  0  0  0  0  0
   10.6514   -0.5632    0.4810 O   0  0  0  0  0  0  0  0  0  0  0  0
    9.1627    0.7948   -1.3605 C   0  0  0  0  0  0  0  0  0  0  0  0
    9.9536    1.8426   -1.8059 C   0  0  0  0  0  0  0  0  0  0  0  0
    9.6392    2.4516   -3.0279 C   0  0  0  0  0  0  0  0  0  0  0  0
    8.5248    1.9999   -3.7671 C   0  0  0  0  0  0  0  0  0  0  0  0
    7.7339    0.9439   -3.3248 C   0  0  0  0  0  0  0  0  0  0  0  0
    8.0408    0.2917   -2.1042 C   0  0  0  0  0  0  0  0  0  0  0  0
    5.7611   -2.2825   -2.8421 C   0  0  0  0  0  0  0  0  0  0  0  0
    6.4990   -3.1761   -3.6014 C   0  0  0  0  0  0  0  0  0  0  0  0
    5.9074   -3.7259   -4.7484 C   0  0  0  0  0  0  0  0  0  0  0  0
    4.5882   -3.3957   -5.1430 C   0  0  0  0  0  0  0  0  0  0  0  0
    3.8326   -2.5014   -4.4020 C   0  0  0  0  0  0  0  0  0  0  0  0
    4.4242   -1.9386   -3.2483 C   0  0  0  0  0  0  0  0  0  0  0  0
    6.3788    0.6591    0.7613 H   0  0  0  0  0  0  0  0  0  0  0  0
    5.3628    2.4416    2.1294 H   0  0  0  0  0  0  0  0  0  0  0  0
    3.0357    3.2130    1.7169 H   0  0  0  0  0  0  0  0  0  0  0  0
    1.6586    2.2016   -0.1173 H   0  0  0  0  0  0  0  0  0  0  0  0
    8.5127   -2.7699    2.2017 H   0  0  0  0  0  0  0  0  0  0  0  0
    6.8955   -4.5323    2.9087 H   0  0  0  0  0  0  0  0  0  0  0  0
    4.8690   -5.0249    1.5541 H   0  0  0  0  0  0  0  0  0  0  0  0
    4.4074   -3.7305   -0.5288 H   0  0  0  0  0  0  0  0  0  0  0  0
   10.8030    2.1831   -1.2079 H   0  0  0  0  0  0  0  0  0  0  0  0
   10.2501    3.2747   -3.4039 H   0  0  0  0  0  0  0  0  0  0  0  0
    8.2795    2.4874   -4.7145 H   0  0  0  0  0  0  0  0  0  0  0  0
    6.8869    0.6111   -3.9302 H   0  0  0  0  0  0  0  0  0  0  0  0
    7.5181   -3.4401   -3.3138 H   0  0  0  0  0  0  0  0  0  0  0  0
    6.4799   -4.4281   -5.3592 H   0  0  0  0  0  0  0  0  0  0  0  0
    4.1701   -3.8489   -6.0441 H   0  0  0  0  0  0  0  0  0  0  0  0
    2.8176   -2.2263   -4.6944 H   0  0  0  0  0  0  0  0  0  0  0  0
  1  2  2  0
  2  3  2  0
  2  4  1  6
  2 11  1  0
  4  5  2  0
  4 35  1  0
  5  6  1  0
 12  5  1  1
  6  7  2  0
  6 11  1  0
  7  8  1  0
  7 36  1  0
  8  9  2  0
  8 37  1  0
  9 10  1  0
  9 38  1  0
 10 11  2  0
 10 39  1  0
 12 13  1  0
 12 20  1  0
 12 30  1  0
 13 14  2  0
 13 29  1  0
 14 15  1  0
 21 14  1  1
 15 16  2  0
 15 20  1  0
 16 17  1  0
 16 40  1  0
 17 18  2  0
 17 41  1  0
 18 19  1  0
 18 42  1  0
 19 20  2  0
 19 43  1  0
 21 22  2  0
 21 23  2  0
 21 24  1  0
 24 25  1  0
 24 29  2  0
 25 26  2  0
 25 44  1  0
 26 27  1  0
 26 45  1  0
 27 28  2  0
 27 46  1  0
 28 29  1  0
 28 47  1  0
 30 31  2  0
 30 35  1  0
 31 32  1  0
 31 48  1  0
 32 33  2  0
 32 49  1  0
 33 34  1  0
 33 50  1  0
 34 35  2  0
 34 51  1  0
M  END

