
     RDKit          3D

 39 40  0  0  0  0  0  0  0  0999 V2000
    1.2721    2.6226   -1.2191 C   0  0  0  0  0  0  0  0  0  0  0  0
    2.2975    1.7566   -1.6438 O   0  0  0  0  0  0  0  0  0  0  0  0
    3.5780    1.9884   -1.2551 C   0  0  0  0  0  0  0  0  0  0  0  0
    3.9854    3.1262   -0.5442 C   0  0  0  0  0  0  0  0  0  0  0  0
    5.3349    3.2994   -0.2145 C   0  0  0  0  0  0  0  0  0  0  0  0
    6.2818    2.3492   -0.5923 C   0  0  0  0  0  0  0  0  0  0  0  0
    5.8647    1.2134   -1.2976 C   0  0  0  0  0  0  0  0  0  0  0  0
    4.5241    1.0071   -1.6328 C   0  0  0  0  0  0  0  0  0  0  0  0
    4.0741   -0.2360   -2.3570 C   0  0  0  0  0  0  0  0  0  0  0  0
    3.5152   -1.3111   -1.4111 C   0  0  0  0  0  0  0  0  0  0  0  0
    3.0057   -1.0052   -0.3524 O   0  0  0  0  0  0  0  0  0  0  0  0
    3.6276   -2.7650   -1.7967 C   0  0  0  0  0  0  0  0  0  0  0  0
    3.9922   -3.7586   -0.8530 C   0  0  0  0  0  0  0  0  0  0  0  0
    4.4727   -3.5415    0.3912 O   0  0  0  0  0  0  0  0  0  0  0  0
    5.2247   -2.4020    0.7673 C   0  0  0  0  0  0  0  0  0  0  0  0
    3.8885   -5.1246   -1.1857 C   0  0  0  0  0  0  0  0  0  0  0  0
    3.4439   -5.5094   -2.4397 C   0  0  0  0  0  0  0  0  0  0  0  0
    3.1041   -4.5547   -3.4058 C   0  0  0  0  0  0  0  0  0  0  0  0
    3.1987   -3.1981   -3.0839 C   0  0  0  0  0  0  0  0  0  0  0  0
    2.8489   -2.2121   -3.9531 O   0  0  0  0  0  0  0  0  0  0  0  0
    2.3665   -2.5431   -5.2365 C   0  0  0  0  0  0  0  0  0  0  0  0
    0.3319    2.2109   -1.6106 H   0  0  0  0  0  0  0  0  0  0  0  0
    1.4042    3.6469   -1.6137 H   0  0  0  0  0  0  0  0  0  0  0  0
    1.2090    2.6709   -0.1173 H   0  0  0  0  0  0  0  0  0  0  0  0
    3.2600    3.8833   -0.2458 H   0  0  0  0  0  0  0  0  0  0  0  0
    5.6393    4.1911    0.3400 H   0  0  0  0  0  0  0  0  0  0  0  0
    7.3366    2.4859   -0.3431 H   0  0  0  0  0  0  0  0  0  0  0  0
    6.6026    0.4636   -1.5994 H   0  0  0  0  0  0  0  0  0  0  0  0
    4.8912   -0.6639   -2.9562 H   0  0  0  0  0  0  0  0  0  0  0  0
    3.2622    0.0037   -3.0593 H   0  0  0  0  0  0  0  0  0  0  0  0
    5.9222   -2.7371    1.5493 H   0  0  0  0  0  0  0  0  0  0  0  0
    4.5805   -1.6018    1.1569 H   0  0  0  0  0  0  0  0  0  0  0  0
    5.8069   -2.0034   -0.0815 H   0  0  0  0  0  0  0  0  0  0  0  0
    4.1855   -5.8528   -0.4297 H   0  0  0  0  0  0  0  0  0  0  0  0
    3.3705   -6.5717   -2.6867 H   0  0  0  0  0  0  0  0  0  0  0  0
    2.7596   -4.8754   -4.3875 H   0  0  0  0  0  0  0  0  0  0  0  0
    2.1517   -1.5918   -5.7415 H   0  0  0  0  0  0  0  0  0  0  0  0
    1.4383   -3.1390   -5.1833 H   0  0  0  0  0  0  0  0  0  0  0  0
    3.1157   -3.1007   -5.8259 H   0  0  0  0  0  0  0  0  0  0  0  0
  1  2  1  0
  1 22  1  0
  1 23  1  0
  1 24  1  0
  2  3  1  0
  3  4  2  0
  3  8  1  0
  4  5  1  0
  4 25  1  0
  5  6  2  0
  5 26  1  0
  6  7  1  0
  6 27  1  0
  7  8  2  0
  7 28  1  0
  8  9  1  0
  9 10  1  0
  9 29  1  0
  9 30  1  0
 10 11  2  0
 10 12  1  0
 12 13  2  0
 12 19  1  0
 13 14  1  0
 13 16  1  0
 14 15  1  0
 15 31  1  0
 15 32  1  0
 15 33  1  0
 16 17  2  0
 16 34  1  0
 17 18  1  0
 17 35  1  0
 18 19  2  0
 18 36  1  0
 19 20  1  0
 20 21  1  0
 21 37  1  0
 21 38  1  0
 21 39  1  0
M  END

