
     RDKit          3D

 34 35  0  0  0  0  0  0  0  0999 V2000
    3.5445    1.3124    0.2302 C   0  0  0  0  0  0  0  0  0  0  0  0
    3.1077    0.0367    0.6400 O   0  0  0  0  0  0  0  0  0  0  0  0
    3.4920   -1.0562   -0.0734 C   0  0  0  0  0  0  0  0  0  0  0  0
    4.2844   -1.0142   -1.2266 C   0  0  0  0  0  0  0  0  0  0  0  0
    4.6615   -2.1961   -1.8766 C   0  0  0  0  0  0  0  0  0  0  0  0
    4.2605   -3.4473   -1.3979 C   0  0  0  0  0  0  0  0  0  0  0  0
    4.6439   -4.7234   -2.1129 C   0  0  0  0  0  0  0  0  0  0  0  0
    3.5730   -5.2030   -3.1179 C   0  0  0  0  0  0  0  0  0  0  0  0
    3.9941   -6.4238   -3.8741 C   0  0  0  0  0  0  0  0  0  0  0  0
    5.1146   -6.5724   -4.5646 N   0  0  0  0  0  0  0  0  0  0  0  0
    5.0206   -7.8454   -5.0500 C   0  0  0  0  0  0  0  0  0  0  0  0
    6.0292   -8.4172   -5.7934 N   0  0  0  0  0  0  0  0  0  0  0  0
    3.9120   -8.4935   -4.7115 N   0  0  0  0  0  0  0  0  0  0  0  0
    3.2741   -7.5639   -3.9493 N   0  0  0  0  0  0  0  0  0  0  0  0
    2.3728   -7.7740   -3.5385 H   0  0  0  0  0  0  0  0  0  0  0  0
    3.4549   -3.4786   -0.2468 C   0  0  0  0  0  0  0  0  0  0  0  0
    3.0653   -2.3160    0.4178 C   0  0  0  0  0  0  0  0  0  0  0  0
    2.3408   -2.4341    1.5696 O   0  0  0  0  0  0  0  0  0  0  0  0
    1.0336   -1.8818    1.5871 C   0  0  0  0  0  0  0  0  0  0  0  0
    3.1357    2.0308    0.9536 H   0  0  0  0  0  0  0  0  0  0  0  0
    3.1748    1.5715   -0.7788 H   0  0  0  0  0  0  0  0  0  0  0  0
    4.6467    1.3889    0.2337 H   0  0  0  0  0  0  0  0  0  0  0  0
    4.6304   -0.0583   -1.6208 H   0  0  0  0  0  0  0  0  0  0  0  0
    5.2917   -2.1328   -2.7681 H   0  0  0  0  0  0  0  0  0  0  0  0
    4.8272   -5.5262   -1.3795 H   0  0  0  0  0  0  0  0  0  0  0  0
    5.5853   -4.5845   -2.6659 H   0  0  0  0  0  0  0  0  0  0  0  0
    3.3717   -4.3902   -3.8367 H   0  0  0  0  0  0  0  0  0  0  0  0
    2.6219   -5.3998   -2.5962 H   0  0  0  0  0  0  0  0  0  0  0  0
    6.6166   -7.7503   -6.2801 H   0  0  0  0  0  0  0  0  0  0  0  0
    5.7495   -9.2141   -6.3536 H   0  0  0  0  0  0  0  0  0  0  0  0
    3.1202   -4.4284    0.1790 H   0  0  0  0  0  0  0  0  0  0  0  0
    0.5948   -2.1448    2.5601 H   0  0  0  0  0  0  0  0  0  0  0  0
    0.4064   -2.3159    0.7862 H   0  0  0  0  0  0  0  0  0  0  0  0
    1.0471   -0.7860    1.4802 H   0  0  0  0  0  0  0  0  0  0  0  0
  1  2  1  0
  1 20  1  0
  1 21  1  0
  1 22  1  0
  2  3  1  0
  3  4  2  0
  3 17  1  0
  4  5  1  0
  4 23  1  0
  5  6  2  0
  5 24  1  0
  6  7  1  0
  6 16  1  0
  7  8  1  0
  7 25  1  0
  7 26  1  0
  8  9  1  0
  8 27  1  0
  8 28  1  0
  9 10  2  0
  9 14  1  0
 10 11  1  0
 11 12  1  0
 11 13  2  0
 12 29  1  0
 12 30  1  0
 13 14  1  0
 14 15  1  0
 16 17  2  0
 16 31  1  0
 17 18  1  0
 18 19  1  0
 19 32  1  0
 19 33  1  0
 19 34  1  0
M  END

