
     RDKit          3D

 50 52  0  0  0  0  0  0  0  0999 V2000
    2.0387   -2.5687   -1.2045 C   0  0  0  0  0  0  0  0  0  0  0  0
    2.2602   -3.9901   -0.7311 C   0  0  0  0  0  0  0  0  0  0  0  0
    1.4500   -4.8663   -0.9513 O   0  0  0  0  0  0  0  0  0  0  0  0
    3.4520   -4.3231   -0.0681 N   0  0  0  0  0  0  0  0  0  0  0  0
    4.5061   -3.5417    0.3658 C   0  0  0  0  0  0  0  0  0  0  0  0
    4.4227   -2.1847    0.7357 C   0  0  0  0  0  0  0  0  0  0  0  0
    5.5533   -1.5083    1.1877 C   0  0  0  0  0  0  0  0  0  0  0  0
    6.8107   -2.1470    1.2916 C   0  0  0  0  0  0  0  0  0  0  0  0
    6.9348   -3.4859    0.9563 C   0  0  0  0  0  0  0  0  0  0  0  0
    5.7905   -4.2123    0.4936 C   0  0  0  0  0  0  0  0  0  0  0  0
    5.9122   -5.5610    0.2229 C   0  0  0  0  0  0  0  0  0  0  0  0
    5.9639   -6.7959    0.1851 C   0  0  0  0  0  0  0  0  0  0  0  0
    6.1084   -8.1752    0.1592 C   0  0  0  0  0  0  0  0  0  0  0  0
    7.4117   -8.7041    0.4016 C   0  0  0  0  0  0  0  0  0  0  0  0
    7.6198  -10.0783    0.4347 C   0  0  0  0  0  0  0  0  0  0  0  0
    6.5142  -10.9410    0.2342 C   0  0  0  0  0  0  0  0  0  0  0  0
    5.2322  -10.4459    0.0023 C   0  0  0  0  0  0  0  0  0  0  0  0
    4.9698   -9.0609   -0.0435 C   0  0  0  0  0  0  0  0  0  0  0  0
    3.6304   -8.4618   -0.1209 C   0  0  0  0  0  0  0  0  0  0  0  0
    3.3895   -7.3464    0.3863 O   0  0  0  0  0  0  0  0  0  0  0  0
    2.5905   -9.1842   -0.7104 N   0  0  0  0  0  0  0  0  0  0  0  0
    2.7603   -9.9415   -1.9390 C   0  0  0  0  0  0  0  0  0  0  0  0
    1.2546   -8.6406   -0.5208 C   0  0  0  0  0  0  0  0  0  0  0  0
    8.4357   -7.8403    0.6739 O   0  0  0  0  0  0  0  0  0  0  0  0
    9.0228   -7.1038   -0.4010 C   0  0  0  0  0  0  0  0  0  0  0  0
    9.6558   -5.7918    0.0878 C   0  0  0  0  0  0  0  0  0  0  0  0
    8.8599   -4.4899   -0.0655 C   0  0  0  0  0  0  0  0  0  0  0  0
    8.1072   -4.1584    1.1135 O   0  0  0  0  0  0  0  0  0  0  0  0
    1.2917   -2.6110   -2.0071 H   0  0  0  0  0  0  0  0  0  0  0  0
    2.9586   -2.0878   -1.5658 H   0  0  0  0  0  0  0  0  0  0  0  0
    1.6236   -1.9516   -0.3916 H   0  0  0  0  0  0  0  0  0  0  0  0
    3.5348   -5.3529    0.0576 H   0  0  0  0  0  0  0  0  0  0  0  0
    3.4679   -1.6652    0.7139 H   0  0  0  0  0  0  0  0  0  0  0  0
    5.4626   -0.4599    1.4804 H   0  0  0  0  0  0  0  0  0  0  0  0
    7.6879   -1.6067    1.6524 H   0  0  0  0  0  0  0  0  0  0  0  0
    8.6188  -10.4641    0.6423 H   0  0  0  0  0  0  0  0  0  0  0  0
    6.6656  -12.0222    0.2919 H   0  0  0  0  0  0  0  0  0  0  0  0
    4.4008  -11.1482   -0.0828 H   0  0  0  0  0  0  0  0  0  0  0  0
    3.8180  -10.1591   -2.1241 H   0  0  0  0  0  0  0  0  0  0  0  0
    2.3759   -9.3742   -2.8107 H   0  0  0  0  0  0  0  0  0  0  0  0
    2.2101  -10.8985   -1.8977 H   0  0  0  0  0  0  0  0  0  0  0  0
    1.1344   -8.3012    0.5156 H   0  0  0  0  0  0  0  0  0  0  0  0
    0.5131   -9.4261   -0.7376 H   0  0  0  0  0  0  0  0  0  0  0  0
    1.0571   -7.7683   -1.1716 H   0  0  0  0  0  0  0  0  0  0  0  0
    8.2705   -6.9036   -1.1837 H   0  0  0  0  0  0  0  0  0  0  0  0
    9.8071   -7.7364   -0.8569 H   0  0  0  0  0  0  0  0  0  0  0  0
   10.5859   -5.6524   -0.4885 H   0  0  0  0  0  0  0  0  0  0  0  0
    9.9631   -5.9099    1.1395 H   0  0  0  0  0  0  0  0  0  0  0  0
    8.1877   -4.5480   -0.9388 H   0  0  0  0  0  0  0  0  0  0  0  0
    9.5633   -3.6569   -0.2479 H   0  0  0  0  0  0  0  0  0  0  0  0
  1  2  1  0
  1 29  1  0
  1 30  1  0
  1 31  1  0
  2  3  2  0
  2  4  1  0
  4  5  1  0
  4 32  1  0
  5  6  2  0
  5 10  1  0
  6  7  1  0
  6 33  1  0
  7  8  2  0
  7 34  1  0
  8  9  1  0
  8 35  1  0
  9 10  2  0
  9 28  1  0
 10 11  1  0
 11 12  3  0
 12 13  1  0
 13 14  2  0
 13 18  1  0
 14 15  1  0
 14 24  1  0
 15 16  2  0
 15 36  1  0
 16 17  1  0
 16 37  1  0
 17 18  2  0
 17 38  1  0
 18 19  1  0
 19 20  2  0
 19 21  1  0
 21 22  1  0
 21 23  1  0
 22 39  1  0
 22 40  1  0
 22 41  1  0
 23 42  1  0
 23 43  1  0
 23 44  1  0
 24 25  1  0
 25 26  1  0
 25 45  1  0
 25 46  1  0
 26 27  1  0
 26 47  1  0
 26 48  1  0
 27 28  1  0
 27 49  1  0
 27 50  1  0
M  END

