
     RDKit          3D

 76 82  0  0  0  0  0  0  0  0999 V2000
    1.1339   -0.1747   -0.8731 C   0  0  0  0  0  0  0  0  0  0  0  0
    2.6315   -0.1015   -0.7036 C   0  0  0  0  0  0  0  0  0  0  0  0
    3.4506    0.4907   -1.6679 C   0  0  0  0  0  0  0  0  0  0  0  0
    4.8431    0.5761   -1.5152 C   0  0  0  0  0  0  0  0  0  0  0  0
    5.6213    1.2504   -2.6290 C   0  0  0  0  0  0  0  0  0  0  0  0
    5.4703    0.0240   -0.3650 C   0  0  0  0  0  0  0  0  0  0  0  0
    7.0445    0.0965   -0.1822 B   0  0  0  0  0  0  0  0  0  0  0  0
    7.7573    1.4978   -0.2531 C   0  0  0  0  0  0  0  0  0  0  0  0
    7.0920    2.6865    0.1171 C   0  0  0  0  0  0  0  0  0  0  0  0
    7.7308    3.9259    0.0877 C   0  0  0  0  0  0  0  0  0  0  0  0
    9.0616    4.0424   -0.3570 C   0  0  0  0  0  0  0  0  0  0  0  0
    9.7490    5.3646   -0.3501 C   0  0  0  0  0  0  0  0  0  0  0  0
    9.7935    6.0863    0.8555 C   0  0  0  0  0  0  0  0  0  0  0  0
   10.4590    7.3037    0.9594 C   0  0  0  0  0  0  0  0  0  0  0  0
   11.1108    7.8639   -0.1522 C   0  0  0  0  0  0  0  0  0  0  0  0
   11.8229    9.1110   -0.0732 C   0  0  0  0  0  0  0  0  0  0  0  0
   12.4426    9.6442   -1.1646 C   0  0  0  0  0  0  0  0  0  0  0  0
   12.4018    8.9819   -2.4411 C   0  0  0  0  0  0  0  0  0  0  0  0
   13.0271    9.5174   -3.5821 C   0  0  0  0  0  0  0  0  0  0  0  0
   12.9638    8.8560   -4.8097 C   0  0  0  0  0  0  0  0  0  0  0  0
   12.2757    7.6478   -4.9273 C   0  0  0  0  0  0  0  0  0  0  0  0
   11.6375    7.0721   -3.8130 C   0  0  0  0  0  0  0  0  0  0  0  0
   10.9083    5.8370   -3.8962 C   0  0  0  0  0  0  0  0  0  0  0  0
   10.3044    5.2886   -2.8025 C   0  0  0  0  0  0  0  0  0  0  0  0
   10.3683    5.9161   -1.5059 C   0  0  0  0  0  0  0  0  0  0  0  0
   11.0590    7.1693   -1.4021 C   0  0  0  0  0  0  0  0  0  0  0  0
   11.6988    7.7390   -2.5495 C   0  0  0  0  0  0  0  0  0  0  0  0
    9.7327    2.8660   -0.7463 C   0  0  0  0  0  0  0  0  0  0  0  0
    9.0983    1.6267   -0.6772 C   0  0  0  0  0  0  0  0  0  0  0  0
    7.9255   -1.1992    0.0703 C   0  0  0  0  0  0  0  0  0  0  0  0
    7.8787   -2.3070   -0.8198 C   0  0  0  0  0  0  0  0  0  0  0  0
    6.9864   -2.3217   -2.0439 C   0  0  0  0  0  0  0  0  0  0  0  0
    8.6850   -3.4313   -0.5876 C   0  0  0  0  0  0  0  0  0  0  0  0
    9.5296   -3.5249    0.5221 C   0  0  0  0  0  0  0  0  0  0  0  0
   10.3840   -4.7448    0.7654 C   0  0  0  0  0  0  0  0  0  0  0  0
    9.5577   -2.4408    1.4076 C   0  0  0  0  0  0  0  0  0  0  0  0
    8.7927   -1.2870    1.1975 C   0  0  0  0  0  0  0  0  0  0  0  0
    8.9130   -0.1744    2.2214 C   0  0  0  0  0  0  0  0  0  0  0  0
    4.6391   -0.5958    0.6131 C   0  0  0  0  0  0  0  0  0  0  0  0
    5.2068   -1.2085    1.8764 C   0  0  0  0  0  0  0  0  0  0  0  0
    3.2516   -0.6339    0.4342 C   0  0  0  0  0  0  0  0  0  0  0  0
    0.8110    0.2696   -1.8263 H   0  0  0  0  0  0  0  0  0  0  0  0
    0.6128    0.3579   -0.0596 H   0  0  0  0  0  0  0  0  0  0  0  0
    0.7784   -1.2187   -0.8493 H   0  0  0  0  0  0  0  0  0  0  0  0
    2.9932    0.9022   -2.5733 H   0  0  0  0  0  0  0  0  0  0  0  0
    5.0505    1.2281   -3.5698 H   0  0  0  0  0  0  0  0  0  0  0  0
    6.5955    0.7781   -2.8194 H   0  0  0  0  0  0  0  0  0  0  0  0
    5.8279    2.3072   -2.3940 H   0  0  0  0  0  0  0  0  0  0  0  0
    6.0490    2.6344    0.4420 H   0  0  0  0  0  0  0  0  0  0  0  0
    7.1891    4.8258    0.3905 H   0  0  0  0  0  0  0  0  0  0  0  0
    9.3151    5.6589    1.7399 H   0  0  0  0  0  0  0  0  0  0  0  0
   10.4892    7.8289    1.9178 H   0  0  0  0  0  0  0  0  0  0  0  0
   11.8572    9.6272    0.8901 H   0  0  0  0  0  0  0  0  0  0  0  0
   12.9813   10.5925   -1.0876 H   0  0  0  0  0  0  0  0  0  0  0  0
   13.5658   10.4649   -3.4965 H   0  0  0  0  0  0  0  0  0  0  0  0
   13.4549    9.2886   -5.6850 H   0  0  0  0  0  0  0  0  0  0  0  0
   12.2253    7.1357   -5.8919 H   0  0  0  0  0  0  0  0  0  0  0  0
   10.8372    5.3398   -4.8675 H   0  0  0  0  0  0  0  0  0  0  0  0
    9.7454    4.3585   -2.9071 H   0  0  0  0  0  0  0  0  0  0  0  0
   10.7731    2.9265   -1.0746 H   0  0  0  0  0  0  0  0  0  0  0  0
    9.6563    0.7288   -0.9575 H   0  0  0  0  0  0  0  0  0  0  0  0
    7.1500   -1.4445   -2.6896 H   0  0  0  0  0  0  0  0  0  0  0  0
    5.9200   -2.3185   -1.7706 H   0  0  0  0  0  0  0  0  0  0  0  0
    7.1757   -3.2168   -2.6544 H   0  0  0  0  0  0  0  0  0  0  0  0
    8.6433   -4.2647   -1.2957 H   0  0  0  0  0  0  0  0  0  0  0  0
   10.1860   -5.5336    0.0245 H   0  0  0  0  0  0  0  0  0  0  0  0
   10.2032   -5.1680    1.7675 H   0  0  0  0  0  0  0  0  0  0  0  0
   11.4581   -4.4974    0.7129 H   0  0  0  0  0  0  0  0  0  0  0  0
   10.1986   -2.4947    2.2938 H   0  0  0  0  0  0  0  0  0  0  0  0
    9.2952   -0.5650    3.1766 H   0  0  0  0  0  0  0  0  0  0  0  0
    7.9546    0.3243    2.4245 H   0  0  0  0  0  0  0  0  0  0  0  0
    9.6072    0.6118    1.8836 H   0  0  0  0  0  0  0  0  0  0  0  0
    5.7823   -0.4774    2.4672 H   0  0  0  0  0  0  0  0  0  0  0  0
    5.8881   -2.0440    1.6556 H   0  0  0  0  0  0  0  0  0  0  0  0
    4.4024   -1.5888    2.5231 H   0  0  0  0  0  0  0  0  0  0  0  0
    2.6333   -1.1027    1.2066 H   0  0  0  0  0  0  0  0  0  0  0  0
  1  2  1  0
  1 42  1  0
  1 43  1  0
  1 44  1  0
  2  3  2  0
  2 41  1  0
  3  4  1  0
  3 45  1  0
  4  5  1  0
  4  6  2  0
  5 46  1  0
  5 47  1  0
  5 48  1  0
  6  7  1  0
  6 39  1  0
  7  8  1  0
  7 30  1  0
  8  9  2  0
  8 29  1  0
  9 10  1  0
  9 49  1  0
 10 11  2  0
 10 50  1  0
 11 12  1  0
 11 28  1  0
 12 13  2  0
 12 25  1  0
 13 14  1  0
 13 51  1  0
 14 15  2  0
 14 52  1  0
 15 16  1  0
 15 26  1  0
 16 17  2  0
 16 53  1  0
 17 18  1  0
 17 54  1  0
 18 19  2  0
 18 27  1  0
 19 20  1  0
 19 55  1  0
 20 21  2  0
 20 56  1  0
 21 22  1  0
 21 57  1  0
 22 23  2  0
 22 27  1  0
 23 24  1  0
 23 58  1  0
 24 25  2  0
 24 59  1  0
 25 26  1  0
 26 27  2  0
 28 29  2  0
 28 60  1  0
 29 61  1  0
 30 31  2  0
 30 37  1  0
 31 32  1  0
 31 33  1  0
 32 62  1  0
 32 63  1  0
 32 64  1  0
 33 34  2  0
 33 65  1  0
 34 35  1  0
 34 36  1  0
 35 66  1  0
 35 67  1  0
 35 68  1  0
 36 37  2  0
 36 69  1  0
 37 38  1  0
 38 70  1  0
 38 71  1  0
 38 72  1  0
 39 40  1  0
 39 41  2  0
 40 73  1  0
 40 74  1  0
 40 75  1  0
 41 76  1  0
M  END

