
     RDKit          3D

128140  0  0  0  0  0  0  0  0999 V2000
    5.0466   -4.4175   -1.5949 C   0  0  0  0  0  0  0  0  0  0  0  0
    5.1190   -2.9472   -1.1802 C   0  0  0  0  0  0  0  0  0  0  0  0
    5.3281   -1.9898   -2.3571 C   0  0  0  0  0  0  0  0  0  0  0  0
    5.3889   -0.5121   -1.9574 C   0  0  0  0  0  0  0  0  0  0  0  0
    5.6771    0.4171   -3.1390 C   0  0  0  0  0  0  0  0  0  0  0  0
    5.6974    1.9113   -2.7670 C   0  0  0  0  0  0  0  0  0  0  0  0
    6.0693    2.8006   -3.9321 C   0  0  0  0  0  0  0  0  0  0  0  0
    5.1795    2.9875   -5.0026 C   0  0  0  0  0  0  0  0  0  0  0  0
    5.5325    3.7500   -6.1153 C   0  0  0  0  0  0  0  0  0  0  0  0
    6.7985    4.3434   -6.1736 C   0  0  0  0  0  0  0  0  0  0  0  0
    7.1633    5.1162   -7.3247 N   0  0  0  0  0  0  0  0  0  0  0  0
    7.2697    6.5516   -7.3637 C   0  0  0  0  0  0  0  0  0  0  0  0
    7.0035    7.6181   -6.4599 C   0  0  0  0  0  0  0  0  0  0  0  0
    6.8180    7.4962   -5.0531 C   0  0  0  0  0  0  0  0  0  0  0  0
    6.5873    8.6157   -4.2865 C   0  0  0  0  0  0  0  0  0  0  0  0
    6.5215    9.9046   -4.8634 C   0  0  0  0  0  0  0  0  0  0  0  0
    6.6684   10.0751   -6.2348 C   0  0  0  0  0  0  0  0  0  0  0  0
    6.6095   11.2667   -6.8583 O   0  0  0  0  0  0  0  0  0  0  0  0
    6.3714   12.4340   -6.1046 C   0  0  0  0  0  0  0  0  0  0  0  0
    6.8909    8.9409   -7.0942 C   0  0  0  0  0  0  0  0  0  0  0  0
    6.8993    9.1928   -8.4411 N   0  0  0  0  0  0  0  0  0  0  0  0
    7.1668    8.1833   -9.2365 C   0  0  0  0  0  0  0  0  0  0  0  0
    7.0130    8.1190  -10.7052 C   0  0  2  0  0  0  0  0  0  0  0  0
    6.9604    9.6912  -12.9262 C   0  0  2  0  0  0  0  0  0  0  0  0
    6.8562   11.1875  -12.6998 C   0  0  0  0  0  0  0  0  0  0  0  0
    6.0254   11.7267  -13.6246 C   0  0  0  0  0  0  0  0  0  0  0  0
    5.6904   13.0341  -13.6826 O   0  0  0  0  0  0  0  0  0  0  0  0
    4.8177   13.4691  -14.7036 C   0  0  0  0  0  0  0  0  0  0  0  0
    5.5510   10.6661  -14.5413 C   0  0  0  0  0  0  0  0  0  0  0  0
    6.0887    9.4931  -14.1528 C   0  0  0  0  0  0  0  0  0  0  0  0
    7.4762    6.9232   -8.6952 C   0  0  0  0  0  0  0  0  0  0  0  0
    7.4381    5.7742   -9.4539 C   0  0  0  0  0  0  0  0  0  0  0  0
    7.2028    4.6475   -8.6360 C   0  0  0  0  0  0  0  0  0  0  0  0
    6.8296    3.5947   -9.5491 C   0  0  0  0  0  0  0  0  0  0  0  0
    6.4806    2.1957   -9.4077 C   0  0  0  0  0  0  0  0  0  0  0  0
    6.9466    1.3576   -8.3265 C   0  0  0  0  0  0  0  0  0  0  0  0
    6.3070    0.1089   -8.0552 C   0  0  0  0  0  0  0  0  0  0  0  0
    6.7576   -0.7359   -7.0566 C   0  0  0  0  0  0  0  0  0  0  0  0
    7.8865   -0.3997   -6.2800 C   0  0  0  0  0  0  0  0  0  0  0  0
    8.2466   -1.2937   -5.3041 O   0  0  0  0  0  0  0  0  0  0  0  0
    9.4643   -1.1020   -4.6296 C   0  0  0  0  0  0  0  0  0  0  0  0
    8.5555    0.8053   -6.5440 C   0  0  0  0  0  0  0  0  0  0  0  0
    8.0939    1.6606   -7.5446 C   0  0  0  0  0  0  0  0  0  0  0  0
    5.7515    1.6287  -10.4049 N   0  0  0  0  0  0  0  0  0  0  0  0
    5.5268    2.2543  -11.5640 C   0  0  0  0  0  0  0  0  0  0  0  0
    4.7181    1.6039  -12.5705 C   0  0  0  0  0  0  0  0  0  0  0  0
    4.1259    0.3997  -12.3198 O   0  0  0  0  0  0  0  0  0  0  0  0
    4.9766   -0.7298  -12.1812 C   0  0  0  0  0  0  0  0  0  0  0  0
    4.4784    2.2118  -13.7949 C   0  0  0  0  0  0  0  0  0  0  0  0
    4.9975    3.4848  -14.1091 C   0  0  0  0  0  0  0  0  0  0  0  0
    5.7777    4.1544  -13.1712 C   0  0  0  0  0  0  0  0  0  0  0  0
    6.0515    3.5741  -11.9122 C   0  0  0  0  0  0  0  0  0  0  0  0
    6.7120    4.2228  -10.8261 C   0  0  0  0  0  0  0  0  0  0  0  0
    7.1702    5.5899  -10.7467 N   0  0  0  0  0  0  0  0  0  0  0  0
    7.1456    6.8158  -11.5738 C   0  0  1  0  0  0  0  0  0  0  0  0
    5.8584    7.5763  -11.5405 C   0  0  2  0  0  0  0  0  0  0  0  0
    6.3080    8.9939  -11.6901 C   0  0  1  0  0  0  0  0  0  0  0  0
    8.4481    9.2310  -13.1497 C   0  0  2  0  0  0  0  0  0  0  0  0
    9.1933   10.0697  -14.2161 C   0  0  0  0  0  0  0  0  0  0  0  0
   10.6909   10.2928  -13.9471 C   0  0  0  0  0  0  0  0  0  0  0  0
   11.5926    9.0529  -13.9627 C   0  0  0  0  0  0  0  0  0  0  0  0
   13.0764    9.3797  -13.7650 C   0  0  0  0  0  0  0  0  0  0  0  0
   13.9892    8.1495  -13.7754 C   0  0  0  0  0  0  0  0  0  0  0  0
   15.4691    8.4824  -13.5802 C   0  0  0  0  0  0  0  0  0  0  0  0
    8.5767    7.7507  -13.4415 C   0  0  0  0  0  0  0  0  0  0  0  0
    8.0452    6.7265  -12.7627 C   0  0  0  0  0  0  0  0  0  0  0  0
    7.6993    4.1773   -5.1176 C   0  0  0  0  0  0  0  0  0  0  0  0
    7.3293    3.4168   -4.0071 C   0  0  0  0  0  0  0  0  0  0  0  0
    4.8993   -5.0782   -0.7255 H   0  0  0  0  0  0  0  0  0  0  0  0
    5.9724   -4.7361   -2.1029 H   0  0  0  0  0  0  0  0  0  0  0  0
    4.2122   -4.5961   -2.2939 H   0  0  0  0  0  0  0  0  0  0  0  0
    5.9382   -2.8104   -0.4503 H   0  0  0  0  0  0  0  0  0  0  0  0
    4.1929   -2.6693   -0.6438 H   0  0  0  0  0  0  0  0  0  0  0  0
    4.5134   -2.1324   -3.0914 H   0  0  0  0  0  0  0  0  0  0  0  0
    6.2563   -2.2586   -2.8939 H   0  0  0  0  0  0  0  0  0  0  0  0
    6.1682   -0.3732   -1.1842 H   0  0  0  0  0  0  0  0  0  0  0  0
    4.4361   -0.2204   -1.4765 H   0  0  0  0  0  0  0  0  0  0  0  0
    4.9234    0.2524   -3.9291 H   0  0  0  0  0  0  0  0  0  0  0  0
    6.6405    0.1400   -3.5979 H   0  0  0  0  0  0  0  0  0  0  0  0
    6.4090    2.0745   -1.9400 H   0  0  0  0  0  0  0  0  0  0  0  0
    4.7033    2.2013   -2.3822 H   0  0  0  0  0  0  0  0  0  0  0  0
    4.1909    2.5224   -4.9713 H   0  0  0  0  0  0  0  0  0  0  0  0
    4.8323    3.8809   -6.9422 H   0  0  0  0  0  0  0  0  0  0  0  0
    6.8745    6.5154   -4.5864 H   0  0  0  0  0  0  0  0  0  0  0  0
    6.4570    8.5144   -3.2064 H   0  0  0  0  0  0  0  0  0  0  0  0
    6.3455   10.7638   -4.2170 H   0  0  0  0  0  0  0  0  0  0  0  0
    6.3572   13.2669   -6.8198 H   0  0  0  0  0  0  0  0  0  0  0  0
    7.1690   12.6130   -5.3609 H   0  0  0  0  0  0  0  0  0  0  0  0
    5.3992   12.3936   -5.5808 H   0  0  0  0  0  0  0  0  0  0  0  0
    8.9366    9.4167  -12.1742 H   0  0  0  0  0  0  0  0  0  0  0  0
    7.3427   11.7205  -11.8835 H   0  0  0  0  0  0  0  0  0  0  0  0
    4.6854   14.5508  -14.5647 H   0  0  0  0  0  0  0  0  0  0  0  0
    3.8280   12.9822  -14.6386 H   0  0  0  0  0  0  0  0  0  0  0  0
    5.2367   13.2921  -15.7105 H   0  0  0  0  0  0  0  0  0  0  0  0
    4.8782   10.8135  -15.3864 H   0  0  0  0  0  0  0  0  0  0  0  0
    5.9304    8.5194  -14.6179 H   0  0  0  0  0  0  0  0  0  0  0  0
    5.4358   -0.1600   -8.6540 H   0  0  0  0  0  0  0  0  0  0  0  0
    6.2517   -1.6820   -6.8491 H   0  0  0  0  0  0  0  0  0  0  0  0
    9.5915   -1.9578   -3.9516 H   0  0  0  0  0  0  0  0  0  0  0  0
    9.4685   -0.1727   -4.0286 H   0  0  0  0  0  0  0  0  0  0  0  0
   10.3215   -1.0681   -5.3277 H   0  0  0  0  0  0  0  0  0  0  0  0
    9.4510    1.0830   -5.9863 H   0  0  0  0  0  0  0  0  0  0  0  0
    8.6748    2.5595   -7.7598 H   0  0  0  0  0  0  0  0  0  0  0  0
    4.3234   -1.5941  -11.9908 H   0  0  0  0  0  0  0  0  0  0  0  0
    5.6777   -0.6058  -11.3428 H   0  0  0  0  0  0  0  0  0  0  0  0
    5.5440   -0.9137  -13.1135 H   0  0  0  0  0  0  0  0  0  0  0  0
    3.8603    1.6665  -14.5125 H   0  0  0  0  0  0  0  0  0  0  0  0
    4.7902    3.9376  -15.0806 H   0  0  0  0  0  0  0  0  0  0  0  0
    6.1674    5.1416  -13.4148 H   0  0  0  0  0  0  0  0  0  0  0  0
    4.8906    7.2003  -11.2058 H   0  0  0  0  0  0  0  0  0  0  0  0
    5.6146    9.6808  -11.1909 H   0  0  0  0  0  0  0  0  0  0  0  0
    8.7192   11.0592  -14.2800 H   0  0  0  0  0  0  0  0  0  0  0  0
    9.0603    9.6031  -15.2078 H   0  0  0  0  0  0  0  0  0  0  0  0
   10.8035   10.8061  -12.9736 H   0  0  0  0  0  0  0  0  0  0  0  0
   11.0676   11.0071  -14.7015 H   0  0  0  0  0  0  0  0  0  0  0  0
   11.4647    8.5185  -14.9230 H   0  0  0  0  0  0  0  0  0  0  0  0
   11.2771    8.3421  -13.1786 H   0  0  0  0  0  0  0  0  0  0  0  0
   13.2062    9.9216  -12.8093 H   0  0  0  0  0  0  0  0  0  0  0  0
   13.4041   10.0837  -14.5530 H   0  0  0  0  0  0  0  0  0  0  0  0
   13.8555    7.6075  -14.7294 H   0  0  0  0  0  0  0  0  0  0  0  0
   13.6617    7.4485  -12.9860 H   0  0  0  0  0  0  0  0  0  0  0  0
   15.8387    9.1501  -14.3767 H   0  0  0  0  0  0  0  0  0  0  0  0
   16.0940    7.5751  -13.5912 H   0  0  0  0  0  0  0  0  0  0  0  0
   15.6416    8.9933  -12.6179 H   0  0  0  0  0  0  0  0  0  0  0  0
    9.1885    7.4867  -14.3089 H   0  0  0  0  0  0  0  0  0  0  0  0
    8.2734    5.7085  -13.0895 H   0  0  0  0  0  0  0  0  0  0  0  0
    8.6906    4.6324   -5.1740 H   0  0  0  0  0  0  0  0  0  0  0  0
    8.0422    3.2832   -3.1889 H   0  0  0  0  0  0  0  0  0  0  0  0
  1  2  1  0
  1 69  1  0
  1 70  1  0
  1 71  1  0
  2  3  1  0
  2 72  1  0
  2 73  1  0
  3  4  1  0
  3 74  1  0
  3 75  1  0
  4  5  1  0
  4 76  1  0
  4 77  1  0
  5  6  1  0
  5 78  1  0
  5 79  1  0
  6  7  1  0
  6 80  1  0
  6 81  1  0
  7  8  2  0
  7 68  1  0
  8  9  1  0
  8 82  1  0
  9 10  2  0
  9 83  1  0
 10 11  1  0
 10 67  1  0
 11 12  1  0
 11 33  1  0
 12 13  1  0
 12 31  2  0
 13 14  1  0
 13 20  2  0
 14 15  2  0
 14 84  1  0
 15 16  1  0
 15 85  1  0
 16 17  2  0
 16 86  1  0
 17 18  1  0
 17 20  1  0
 18 19  1  0
 19 87  1  0
 19 88  1  0
 19 89  1  0
 20 21  1  0
 21 22  2  0
 23 22  1  1
 22 31  1  0
 23 55  1  0
 23 56  1  0
 23 57  1  0
 24 25  1  1
 24 30  1  0
 24 57  1  0
 24 58  1  0
 25 26  2  0
 25 91  1  0
 26 27  1  0
 26 29  1  0
 27 28  1  0
 28 92  1  0
 28 93  1  0
 28 94  1  0
 29 30  2  0
 29 95  1  0
 30 96  1  0
 31 32  1  0
 32 33  2  0
 32 54  1  0
 33 34  1  0
 34 35  2  0
 34 53  1  0
 35 36  1  0
 35 44  1  0
 36 37  2  0
 36 43  1  0
 37 38  1  0
 37 97  1  0
 38 39  2  0
 38 98  1  0
 39 40  1  0
 39 42  1  0
 40 41  1  0
 41 99  1  0
 41100  1  0
 41101  1  0
 42 43  2  0
 42102  1  0
 43103  1  0
 44 45  2  0
 45 46  1  0
 45 52  1  0
 46 47  1  0
 46 49  2  0
 47 48  1  0
 48104  1  0
 48105  1  0
 48106  1  0
 49 50  1  0
 49107  1  0
 50 51  2  0
 50108  1  0
 51 52  1  0
 51109  1  0
 52 53  2  0
 53 54  1  0
 55 54  1  1
 55 56  1  0
 55 66  1  0
 56 57  1  0
 56110  1  1
 57111  1  1
 58 59  1  0
 58 65  1  0
 58 90  1  1
 59 60  1  0
 59112  1  0
 59113  1  0
 60 61  1  0
 60114  1  0
 60115  1  0
 61 62  1  0
 61116  1  0
 61117  1  0
 62 63  1  0
 62118  1  0
 62119  1  0
 63 64  1  0
 63120  1  0
 63121  1  0
 64122  1  0
 64123  1  0
 64124  1  0
 65 66  2  0
 65125  1  0
 66126  1  0
 67 68  2  0
 67127  1  0
 68128  1  0
M  END

