
     RDKit          3D

 40 43  0  0  0  0  0  0  0  0999 V2000
    2.1499   -2.1669    3.0688 C   0  0  0  0  0  0  0  0  0  0  0  0
    3.4693   -1.9153    2.3796 C   0  0  0  0  0  0  0  0  0  0  0  0
    4.6864   -2.2401    3.0097 C   0  0  0  0  0  0  0  0  0  0  0  0
    5.9103   -2.0101    2.3918 C   0  0  0  0  0  0  0  0  0  0  0  0
    5.9566   -1.4413    1.1076 C   0  0  0  0  0  0  0  0  0  0  0  0
    7.2033   -1.2533    0.5817 O   0  0  0  0  0  0  0  0  0  0  0  0
    7.3309   -0.6582   -0.6950 C   0  0  0  0  0  0  0  0  0  0  0  0
    8.7962   -0.5254   -1.0330 C   0  0  0  0  0  0  0  0  0  0  0  0
    9.3278    0.7066   -1.2577 C   0  0  0  0  0  0  0  0  0  0  0  0
   10.7234    0.9082   -1.6245 C   0  0  0  0  0  0  0  0  0  0  0  0
   11.2700    1.9570   -1.8370 O   0  0  0  0  0  0  0  0  0  0  0  0
   11.4753   -0.2606   -1.7315 O   0  0  0  0  0  0  0  0  0  0  0  0
   10.9760   -1.4999   -1.5163 C   0  0  0  0  0  0  0  0  0  0  0  0
    9.6401   -1.7021   -1.1588 C   0  0  0  0  0  0  0  0  0  0  0  0
    9.1870   -3.0428   -0.9520 C   0  0  0  0  0  0  0  0  0  0  0  0
   10.0355   -4.1089   -1.1075 C   0  0  0  0  0  0  0  0  0  0  0  0
   11.4023   -3.9160   -1.4744 C   0  0  0  0  0  0  0  0  0  0  0  0
   12.3038   -5.0010   -1.6393 C   0  0  0  0  0  0  0  0  0  0  0  0
   13.6206   -4.7804   -1.9924 C   0  0  0  0  0  0  0  0  0  0  0  0
   14.0960   -3.4624   -2.1969 C   0  0  0  0  0  0  0  0  0  0  0  0
   13.2481   -2.3833   -2.0459 C   0  0  0  0  0  0  0  0  0  0  0  0
   11.8900   -2.5863   -1.6829 C   0  0  0  0  0  0  0  0  0  0  0  0
    4.7607   -1.1102    0.4604 C   0  0  0  0  0  0  0  0  0  0  0  0
    3.5373   -1.3504    1.1023 C   0  0  0  0  0  0  0  0  0  0  0  0
    2.0338   -3.2289    3.3434 H   0  0  0  0  0  0  0  0  0  0  0  0
    1.3001   -1.8932    2.4260 H   0  0  0  0  0  0  0  0  0  0  0  0
    2.0645   -1.5836    4.0014 H   0  0  0  0  0  0  0  0  0  0  0  0
    4.6727   -2.6827    4.0103 H   0  0  0  0  0  0  0  0  0  0  0  0
    6.8524   -2.2607    2.8839 H   0  0  0  0  0  0  0  0  0  0  0  0
    6.8561    0.3383   -0.7093 H   0  0  0  0  0  0  0  0  0  0  0  0
    6.8264   -1.2793   -1.4616 H   0  0  0  0  0  0  0  0  0  0  0  0
    8.7332    1.6174   -1.1721 H   0  0  0  0  0  0  0  0  0  0  0  0
    8.1540   -3.2097   -0.6479 H   0  0  0  0  0  0  0  0  0  0  0  0
    9.6733   -5.1267   -0.9440 H   0  0  0  0  0  0  0  0  0  0  0  0
   11.9362   -6.0183   -1.4804 H   0  0  0  0  0  0  0  0  0  0  0  0
   14.3018   -5.6263   -2.1152 H   0  0  0  0  0  0  0  0  0  0  0  0
   15.1400   -3.3003   -2.4758 H   0  0  0  0  0  0  0  0  0  0  0  0
   13.6031   -1.3638   -2.2012 H   0  0  0  0  0  0  0  0  0  0  0  0
    4.7583   -0.6681   -0.5363 H   0  0  0  0  0  0  0  0  0  0  0  0
    2.6123   -1.0847    0.5824 H   0  0  0  0  0  0  0  0  0  0  0  0
  1  2  1  0
  1 25  1  0
  1 26  1  0
  1 27  1  0
  2  3  2  0
  2 24  1  0
  3  4  1  0
  3 28  1  0
  4  5  2  0
  4 29  1  0
  5  6  1  0
  5 23  1  0
  6  7  1  0
  7  8  1  0
  7 30  1  0
  7 31  1  0
  8  9  2  0
  8 14  1  0
  9 10  1  0
  9 32  1  0
 10 11  2  0
 10 12  1  0
 12 13  1  0
 13 14  2  0
 13 22  1  0
 14 15  1  0
 15 16  2  0
 15 33  1  0
 16 17  1  0
 16 34  1  0
 17 18  1  0
 17 22  2  0
 18 19  2  0
 18 35  1  0
 19 20  1  0
 19 36  1  0
 20 21  2  0
 20 37  1  0
 21 22  1  0
 21 38  1  0
 23 24  2  0
 23 39  1  0
 24 40  1  0
M  END

