
     RDKit          3D

 81 87  0  0  0  0  0  0  0  0999 V2000
    1.7171    2.4069   -0.9235 C   0  0  0  0  0  0  0  0  0  0  0  0
    1.9803    1.7768    0.4343 C   0  0  0  0  0  0  0  0  0  0  0  0
    2.8668    2.5808    1.2295 O   0  0  0  0  0  0  0  0  0  0  0  0
    4.1888    2.4162    1.0693 C   0  0  0  0  0  0  0  0  0  0  0  0
    4.6428    1.6237    0.2607 O   0  0  0  0  0  0  0  0  0  0  0  0
    4.9959    3.3162    1.9374 C   0  0  0  0  0  0  0  0  0  0  0  0
    6.3443    3.3395    1.6462 C   0  0  0  0  0  0  0  0  0  0  0  0
    6.9174    2.2783    0.7019 C   0  0  0  0  0  0  0  0  0  0  0  0
    7.3161    2.5181   -0.4090 O   0  0  0  0  0  0  0  0  0  0  0  0
    7.0922    1.1111    1.3443 O   0  0  0  0  0  0  0  0  0  0  0  0
    7.4943    0.0063    0.5320 C   0  0  0  0  0  0  0  0  0  0  0  0
    7.3169    4.2190    2.0671 N   0  0  0  0  0  0  0  0  0  0  0  0
    8.7491    3.8918    1.9540 C   0  0  0  0  0  0  0  0  0  0  0  0
    9.3963    4.7171    0.8521 C   0  0  0  0  0  0  0  0  0  0  0  0
    9.0824    6.1821    1.0468 C   0  0  0  0  0  0  0  0  0  0  0  0
    9.8972    7.1543    0.4439 C   0  0  0  0  0  0  0  0  0  0  0  0
    9.6561    8.5196    0.6083 C   0  0  0  0  0  0  0  0  0  0  0  0
   10.4163    9.5093    0.0771 O   0  0  0  0  0  0  0  0  0  0  0  0
   11.5484    9.1720   -0.6941 C   0  0  0  0  0  0  0  0  0  0  0  0
    8.5514    8.9242    1.4029 C   0  0  0  0  0  0  0  0  0  0  0  0
    8.2870   10.2402    1.6516 O   0  0  0  0  0  0  0  0  0  0  0  0
    7.8900   11.0475    0.5527 C   0  0  0  0  0  0  0  0  0  0  0  0
    7.7525    7.9578    1.9980 C   0  0  0  0  0  0  0  0  0  0  0  0
    7.9873    6.5748    1.8411 C   0  0  0  0  0  0  0  0  0  0  0  0
    7.0848    5.5658    2.4687 C   0  0  0  0  0  0  0  0  0  0  0  0
    6.1037    5.8699    3.3377 C   0  0  0  0  0  0  0  0  0  0  0  0
    5.2019    4.8760    4.0291 C   0  0  2  0  0  0  0  0  0  0  0  0
    4.4981    5.4759    4.6213 H   0  0  0  0  0  0  0  0  0  0  0  0
    5.9816    4.0668    5.0751 C   0  0  0  0  0  0  0  0  0  0  0  0
    6.0835    4.6256    6.3623 C   0  0  0  0  0  0  0  0  0  0  0  0
    6.8180    4.0183    7.3811 C   0  0  0  0  0  0  0  0  0  0  0  0
    7.4713    2.8117    7.1221 C   0  0  0  0  0  0  0  0  0  0  0  0
    8.3963    2.0308    8.3869 Cl  0  0  0  0  0  0  0  0  0  0  0  0
    7.3817    2.2223    5.8603 C   0  0  0  0  0  0  0  0  0  0  0  0
    6.6448    2.8481    4.8501 C   0  0  0  0  0  0  0  0  0  0  0  0
    4.2545    4.1274    3.0036 C   0  0  1  0  0  0  0  0  0  0  0  0
    3.3288    5.2138    2.4196 C   0  0  0  0  0  0  0  0  0  0  0  0
    3.6091    6.1859    1.4623 C   0  0  0  0  0  0  0  0  0  0  0  0
    2.6161    7.1179    1.1240 C   0  0  0  0  0  0  0  0  0  0  0  0
    1.3593    7.0769    1.7394 C   0  0  0  0  0  0  0  0  0  0  0  0
    1.0679    6.0912    2.6891 C   0  0  0  0  0  0  0  0  0  0  0  0
    2.0529    5.1551    3.0185 C   0  0  0  0  0  0  0  0  0  0  0  0
    2.0031    3.9848    3.9015 C   0  0  0  0  0  0  0  0  0  0  0  0
    0.9515    3.4745    4.6687 C   0  0  0  0  0  0  0  0  0  0  0  0
    1.1355    2.2708    5.3571 C   0  0  0  0  0  0  0  0  0  0  0  0
    2.3536    1.5869    5.2690 C   0  0  0  0  0  0  0  0  0  0  0  0
    3.4135    2.1061    4.5113 C   0  0  0  0  0  0  0  0  0  0  0  0
    3.2432    3.3128    3.8370 C   0  0  0  0  0  0  0  0  0  0  0  0
    0.9734    1.8092   -1.4751 H   0  0  0  0  0  0  0  0  0  0  0  0
    2.6397    2.4437   -1.5211 H   0  0  0  0  0  0  0  0  0  0  0  0
    1.3249    3.4296   -0.8119 H   0  0  0  0  0  0  0  0  0  0  0  0
    2.4109    0.7707    0.3254 H   0  0  0  0  0  0  0  0  0  0  0  0
    1.0590    1.7119    1.0310 H   0  0  0  0  0  0  0  0  0  0  0  0
    6.6978   -0.2218   -0.1918 H   0  0  0  0  0  0  0  0  0  0  0  0
    7.6442   -0.8387    1.2153 H   0  0  0  0  0  0  0  0  0  0  0  0
    8.4235    0.2321   -0.0122 H   0  0  0  0  0  0  0  0  0  0  0  0
    8.8743    2.8166    1.7911 H   0  0  0  0  0  0  0  0  0  0  0  0
    9.2145    4.1173    2.9284 H   0  0  0  0  0  0  0  0  0  0  0  0
    9.0191    4.3654   -0.1234 H   0  0  0  0  0  0  0  0  0  0  0  0
   10.4872    4.5563    0.8567 H   0  0  0  0  0  0  0  0  0  0  0  0
   10.7459    6.8174   -0.1530 H   0  0  0  0  0  0  0  0  0  0  0  0
   12.0078   10.1195   -1.0058 H   0  0  0  0  0  0  0  0  0  0  0  0
   11.2754    8.5921   -1.5940 H   0  0  0  0  0  0  0  0  0  0  0  0
   12.2840    8.5933   -0.1074 H   0  0  0  0  0  0  0  0  0  0  0  0
    7.6661   12.0437    0.9596 H   0  0  0  0  0  0  0  0  0  0  0  0
    6.9786   10.6460    0.0726 H   0  0  0  0  0  0  0  0  0  0  0  0
    8.6874   11.1356   -0.2017 H   0  0  0  0  0  0  0  0  0  0  0  0
    6.9212    8.3302    2.5965 H   0  0  0  0  0  0  0  0  0  0  0  0
    5.9329    6.9197    3.5724 H   0  0  0  0  0  0  0  0  0  0  0  0
    5.5708    5.5671    6.5788 H   0  0  0  0  0  0  0  0  0  0  0  0
    6.8802    4.4721    8.3716 H   0  0  0  0  0  0  0  0  0  0  0  0
    7.8831    1.2719    5.6686 H   0  0  0  0  0  0  0  0  0  0  0  0
    6.5778    2.3472    3.8863 H   0  0  0  0  0  0  0  0  0  0  0  0
    4.5815    6.2200    0.9684 H   0  0  0  0  0  0  0  0  0  0  0  0
    2.8263    7.8801    0.3692 H   0  0  0  0  0  0  0  0  0  0  0  0
    0.5968    7.8115    1.4674 H   0  0  0  0  0  0  0  0  0  0  0  0
    0.0793    6.0485    3.1536 H   0  0  0  0  0  0  0  0  0  0  0  0
   -0.0068    3.9982    4.7190 H   0  0  0  0  0  0  0  0  0  0  0  0
    0.3213    1.8570    5.9578 H   0  0  0  0  0  0  0  0  0  0  0  0
    2.4830    0.6384    5.7965 H   0  0  0  0  0  0  0  0  0  0  0  0
    4.3516    1.5544    4.4479 H   0  0  0  0  0  0  0  0  0  0  0  0
  1  2  1  0
  1 49  1  0
  1 50  1  0
  1 51  1  0
  2  3  1  0
  2 52  1  0
  2 53  1  0
  3  4  1  0
  4  5  2  0
  4  6  1  0
  6  7  2  0
 36  6  1  6
  7  8  1  0
  7 12  1  0
  8  9  2  0
  8 10  1  0
 10 11  1  0
 11 54  1  0
 11 55  1  0
 11 56  1  0
 12 13  1  0
 12 25  1  0
 13 14  1  0
 13 57  1  0
 13 58  1  0
 14 15  1  0
 14 59  1  0
 14 60  1  0
 15 16  2  0
 15 24  1  0
 16 17  1  0
 16 61  1  0
 17 18  1  0
 17 20  2  0
 18 19  1  0
 19 62  1  0
 19 63  1  0
 19 64  1  0
 20 21  1  0
 20 23  1  0
 21 22  1  0
 22 65  1  0
 22 66  1  0
 22 67  1  0
 23 24  2  0
 23 68  1  0
 24 25  1  0
 25 26  2  0
 26 27  1  0
 26 69  1  0
 27 28  1  1
 27 29  1  0
 27 36  1  0
 29 30  2  0
 29 35  1  0
 30 31  1  0
 30 70  1  0
 31 32  2  0
 31 71  1  0
 32 33  1  0
 32 34  1  0
 34 35  2  0
 34 72  1  0
 35 73  1  0
 36 37  1  0
 36 48  1  0
 37 38  2  0
 37 42  1  0
 38 39  1  0
 38 74  1  0
 39 40  2  0
 39 75  1  0
 40 41  1  0
 40 76  1  0
 41 42  2  0
 41 77  1  0
 42 43  1  0
 43 44  2  0
 43 48  1  0
 44 45  1  0
 44 78  1  0
 45 46  2  0
 45 79  1  0
 46 47  1  0
 46 80  1  0
 47 48  2  0
 47 81  1  0
M  END

