
     RDKit          3D

198209  0  0  0  0  0  0  0  0999 V2000
    5.6056   -0.9129   -6.9002 C   0  0  0  0  0  0  0  0  0  0  0  0
    6.8504   -0.6139   -6.0638 C   0  0  0  0  0  0  0  0  0  0  0  0
    7.6115    0.6347   -6.5232 C   0  0  0  0  0  0  0  0  0  0  0  0
    8.8573    0.9397   -5.6839 C   0  0  0  0  0  0  0  0  0  0  0  0
    9.7113    2.1143   -6.1880 C   0  0  0  0  0  0  0  0  0  0  0  0
    9.0266    3.4920   -6.2168 C   0  0  0  0  0  0  0  0  0  0  0  0
    8.6024    4.0568   -4.8483 C   0  0  0  0  0  0  0  0  0  0  0  0
    9.7547    4.4767   -3.9087 C   0  0  0  0  0  0  0  0  0  0  0  0
   10.1434    5.9954   -3.8401 C   0  0  2  0  0  0  0  0  0  0  0  0
   10.4570    6.5664   -5.2470 C   0  0  0  0  0  0  0  0  0  0  0  0
   10.9083    8.0298   -5.2974 C   0  0  0  0  0  0  0  0  0  0  0  0
   11.2388    8.5038   -6.7168 C   0  0  0  0  0  0  0  0  0  0  0  0
   11.6723    9.9708   -6.7933 C   0  0  0  0  0  0  0  0  0  0  0  0
   12.0256   10.4397   -8.2078 C   0  0  0  0  0  0  0  0  0  0  0  0
   12.4505   11.9088   -8.2874 C   0  0  0  0  0  0  0  0  0  0  0  0
   12.8156   12.3744   -9.7005 C   0  0  0  0  0  0  0  0  0  0  0  0
   13.2366   13.8428   -9.7720 C   0  0  0  0  0  0  0  0  0  0  0  0
   11.3298    6.1205   -2.8792 C   0  0  0  0  0  0  0  0  0  0  0  0
   12.6190    5.6227   -3.0251 C   0  0  0  0  0  0  0  0  0  0  0  0
   13.5729    5.8034   -1.9995 C   0  0  0  0  0  0  0  0  0  0  0  0
   14.9567    5.2859   -2.1510 C   0  0  0  0  0  0  0  0  0  0  0  0
   15.6011    5.2936   -3.4039 C   0  0  0  0  0  0  0  0  0  0  0  0
   16.9008    4.8137   -3.5496 C   0  0  0  0  0  0  0  0  0  0  0  0
   17.5923    4.3109   -2.4411 C   0  0  0  0  0  0  0  0  0  0  0  0
   19.0191    3.8461   -2.5924 C   0  0  1  0  0  0  0  0  0  0  0  0
   19.2336    3.2797   -3.7931 F   0  0  0  0  0  0  0  0  0  0  0  0
   19.8864    4.8720   -2.4848 F   0  0  0  0  0  0  0  0  0  0  0  0
   19.3571    2.9469   -1.6525 F   0  0  0  0  0  0  0  0  0  0  0  0
   16.9672    4.2888   -1.1895 C   0  0  0  0  0  0  0  0  0  0  0  0
   15.6669    4.7712   -1.0490 C   0  0  0  0  0  0  0  0  0  0  0  0
   13.1864    6.4915   -0.8271 C   0  0  0  0  0  0  0  0  0  0  0  0
   11.8975    6.9957   -0.6718 C   0  0  0  0  0  0  0  0  0  0  0  0
   10.9654    6.8120   -1.7026 C   0  0  0  0  0  0  0  0  0  0  0  0
    9.5800    7.2421   -1.8311 C   0  0  0  0  0  0  0  0  0  0  0  0
    8.7615    7.9715   -0.9563 C   0  0  0  0  0  0  0  0  0  0  0  0
    7.4681    8.3009   -1.3440 C   0  0  0  0  0  0  0  0  0  0  0  0
    6.9774    7.9165   -2.6165 C   0  0  0  0  0  0  0  0  0  0  0  0
    5.6611    8.2282   -3.0116 N   0  0  0  0  0  0  0  0  0  0  0  0
    5.0455    9.4206   -2.6860 C   0  0  0  0  0  0  0  0  0  0  0  0
    5.7901   10.6018   -2.4068 C   0  0  0  0  0  0  0  0  0  0  0  0
    5.1535   11.7896   -2.0990 C   0  0  0  0  0  0  0  0  0  0  0  0
    3.7425   11.8674   -2.0568 C   0  0  0  0  0  0  0  0  0  0  0  0
    3.1024   13.0703   -1.7414 N   0  0  0  0  0  0  0  0  0  0  0  0
    1.9939   13.6210   -2.4157 C   0  0  0  0  0  0  0  0  0  0  0  0
    1.3270   13.1650   -3.5595 C   0  0  0  0  0  0  0  0  0  0  0  0
    0.2711   13.9373   -4.0493 C   0  0  0  0  0  0  0  0  0  0  0  0
   -0.1045   15.1402   -3.4283 C   0  0  0  0  0  0  0  0  0  0  0  0
    0.5833   15.6059   -2.3055 C   0  0  0  0  0  0  0  0  0  0  0  0
    1.6421   14.8473   -1.7958 C   0  0  0  0  0  0  0  0  0  0  0  0
    2.5717   15.0503   -0.6971 C   0  0  0  0  0  0  0  0  0  0  0  0
    2.7006   16.0470    0.2757 C   0  0  0  0  0  0  0  0  0  0  0  0
    3.7012   15.9251    1.2427 C   0  0  0  0  0  0  0  0  0  0  0  0
    4.5553   14.8098    1.2513 C   0  0  0  0  0  0  0  0  0  0  0  0
    4.4429   13.8011    0.2914 C   0  0  0  0  0  0  0  0  0  0  0  0
    3.4575   13.9423   -0.6934 C   0  0  0  0  0  0  0  0  0  0  0  0
    2.9960   10.7036   -2.3557 C   0  0  0  0  0  0  0  0  0  0  0  0
    3.6258    9.5149   -2.6712 C   0  0  0  0  0  0  0  0  0  0  0  0
    4.9384    7.2409   -3.7931 C   0  0  0  0  0  0  0  0  0  0  0  0
    4.6864    7.4745   -5.1537 C   0  0  0  0  0  0  0  0  0  0  0  0
    4.0107    6.5254   -5.9181 C   0  0  0  0  0  0  0  0  0  0  0  0
    3.5824    5.3166   -5.3167 C   0  0  0  0  0  0  0  0  0  0  0  0
    3.8635    5.0781   -3.9311 C   0  0  0  0  0  0  0  0  0  0  0  0
    4.5237    6.0320   -3.1775 C   0  0  0  0  0  0  0  0  0  0  0  0
    3.3269    3.6978   -3.5165 C   0  0  1  0  0  0  0  0  0  0  0  0
    4.4931    2.6966   -3.2208 C   0  0  0  0  0  0  0  0  0  0  0  0
    5.3159    2.8640   -1.9239 C   0  0  0  0  0  0  0  0  0  0  0  0
    4.8884    1.9844   -0.7350 C   0  0  0  0  0  0  0  0  0  0  0  0
    5.2016    0.4930   -0.9028 C   0  0  0  0  0  0  0  0  0  0  0  0
    4.7667   -0.3661    0.2885 C   0  0  0  0  0  0  0  0  0  0  0  0
    5.0870   -1.8551    0.1287 C   0  0  0  0  0  0  0  0  0  0  0  0
    4.6519   -2.7172    1.3180 C   0  0  0  0  0  0  0  0  0  0  0  0
    4.9766   -4.2021    1.1486 C   0  0  0  0  0  0  0  0  0  0  0  0
    2.3316    3.7782   -2.3298 C   0  0  0  0  0  0  0  0  0  0  0  0
    1.1064    4.6706   -2.5554 C   0  0  0  0  0  0  0  0  0  0  0  0
    0.0697    4.6192   -1.4212 C   0  0  0  0  0  0  0  0  0  0  0  0
    0.5336    5.0969   -0.0359 C   0  0  0  0  0  0  0  0  0  0  0  0
    0.9462    6.5711    0.0366 C   0  0  0  0  0  0  0  0  0  0  0  0
    1.3374    7.0308    1.4444 C   0  0  0  0  0  0  0  0  0  0  0  0
    1.7418    8.5059    1.5308 C   0  0  0  0  0  0  0  0  0  0  0  0
    2.1414    8.9520    2.9382 C   0  0  0  0  0  0  0  0  0  0  0  0
    2.6471    3.2422   -4.8183 C   0  0  0  0  0  0  0  0  0  0  0  0
    1.9528    2.0740   -5.0532 C   0  0  0  0  0  0  0  0  0  0  0  0
    1.4068    1.7818   -6.3489 C   0  0  0  0  0  0  0  0  0  0  0  0
    0.6645    0.5567   -6.6127 C   0  0  0  0  0  0  0  0  0  0  0  0
    0.2103   -0.2971   -5.5629 C   0  0  0  0  0  0  0  0  0  0  0  0
   -0.4988   -1.4625   -5.8116 C   0  0  0  0  0  0  0  0  0  0  0  0
   -0.7979   -1.8592   -7.1277 C   0  0  0  0  0  0  0  0  0  0  0  0
   -1.6101   -3.0799   -7.4024 C   0  0  1  0  0  0  0  0  0  0  0  0
   -1.5447   -3.9813   -6.3984 F   0  0  0  0  0  0  0  0  0  0  0  0
   -2.9308   -2.8113   -7.5750 F   0  0  0  0  0  0  0  0  0  0  0  0
   -1.2191   -3.7141   -8.5314 F   0  0  0  0  0  0  0  0  0  0  0  0
   -0.3590   -1.0388   -8.1860 C   0  0  0  0  0  0  0  0  0  0  0  0
    0.3469    0.1267   -7.9365 C   0  0  0  0  0  0  0  0  0  0  0  0
    1.6270    2.7650   -7.3655 C   0  0  0  0  0  0  0  0  0  0  0  0
    2.3199    3.9400   -7.1364 C   0  0  0  0  0  0  0  0  0  0  0  0
    2.8485    4.2034   -5.8481 C   0  0  0  0  0  0  0  0  0  0  0  0
    7.7963    7.1454   -3.4787 C   0  0  0  0  0  0  0  0  0  0  0  0
    9.0819    6.8094   -3.0892 C   0  0  0  0  0  0  0  0  0  0  0  0
    5.0900   -1.8201   -6.5478 H   0  0  0  0  0  0  0  0  0  0  0  0
    5.8647   -1.0695   -7.9610 H   0  0  0  0  0  0  0  0  0  0  0  0
    4.8807   -0.0838   -6.8557 H   0  0  0  0  0  0  0  0  0  0  0  0
    7.5335   -1.4831   -6.0884 H   0  0  0  0  0  0  0  0  0  0  0  0
    6.5614   -0.4909   -5.0038 H   0  0  0  0  0  0  0  0  0  0  0  0
    6.9202    1.4963   -6.5063 H   0  0  0  0  0  0  0  0  0  0  0  0
    7.9085    0.5101   -7.5819 H   0  0  0  0  0  0  0  0  0  0  0  0
    9.4966    0.0389   -5.6579 H   0  0  0  0  0  0  0  0  0  0  0  0
    8.5557    1.1107   -4.6343 H   0  0  0  0  0  0  0  0  0  0  0  0
   10.0556    1.8836   -7.2122 H   0  0  0  0  0  0  0  0  0  0  0  0
   10.6310    2.1695   -5.5774 H   0  0  0  0  0  0  0  0  0  0  0  0
    8.1320    3.4363   -6.8592 H   0  0  0  0  0  0  0  0  0  0  0  0
    9.7023    4.2056   -6.7182 H   0  0  0  0  0  0  0  0  0  0  0  0
    7.9898    3.3019   -4.3298 H   0  0  0  0  0  0  0  0  0  0  0  0
    7.9139    4.8988   -5.0126 H   0  0  0  0  0  0  0  0  0  0  0  0
   10.6677    3.9235   -4.1845 H   0  0  0  0  0  0  0  0  0  0  0  0
    9.5262    4.1628   -2.8778 H   0  0  0  0  0  0  0  0  0  0  0  0
    9.5634    6.4436   -5.8814 H   0  0  0  0  0  0  0  0  0  0  0  0
   11.2348    5.9308   -5.7057 H   0  0  0  0  0  0  0  0  0  0  0  0
   11.7937    8.1706   -4.6531 H   0  0  0  0  0  0  0  0  0  0  0  0
   10.1197    8.6766   -4.8741 H   0  0  0  0  0  0  0  0  0  0  0  0
   10.3601    8.3484   -7.3700 H   0  0  0  0  0  0  0  0  0  0  0  0
   12.0379    7.8657   -7.1379 H   0  0  0  0  0  0  0  0  0  0  0  0
   12.5418   10.1296   -6.1285 H   0  0  0  0  0  0  0  0  0  0  0  0
   10.8664   10.6104   -6.3870 H   0  0  0  0  0  0  0  0  0  0  0  0
   11.1588   10.2736   -8.8743 H   0  0  0  0  0  0  0  0  0  0  0  0
   12.8361    9.8035   -8.6098 H   0  0  0  0  0  0  0  0  0  0  0  0
   13.3129   12.0766   -7.6151 H   0  0  0  0  0  0  0  0  0  0  0  0
   11.6369   12.5462   -7.8928 H   0  0  0  0  0  0  0  0  0  0  0  0
   11.9545   12.2037  -10.3721 H   0  0  0  0  0  0  0  0  0  0  0  0
   13.6298   11.7376  -10.0922 H   0  0  0  0  0  0  0  0  0  0  0  0
   12.4293   14.5093   -9.4243 H   0  0  0  0  0  0  0  0  0  0  0  0
   13.4932   14.1414  -10.8010 H   0  0  0  0  0  0  0  0  0  0  0  0
   14.1189   14.0384   -9.1395 H   0  0  0  0  0  0  0  0  0  0  0  0
   12.8960    5.0673   -3.9241 H   0  0  0  0  0  0  0  0  0  0  0  0
   15.0862    5.7043   -4.2747 H   0  0  0  0  0  0  0  0  0  0  0  0
   17.3828    4.8311   -4.5290 H   0  0  0  0  0  0  0  0  0  0  0  0
   17.4944    3.8800   -0.3258 H   0  0  0  0  0  0  0  0  0  0  0  0
   15.1848    4.7205   -0.0706 H   0  0  0  0  0  0  0  0  0  0  0  0
   13.9222    6.6576   -0.0377 H   0  0  0  0  0  0  0  0  0  0  0  0
   11.6286    7.5357    0.2395 H   0  0  0  0  0  0  0  0  0  0  0  0
    9.1246    8.2706    0.0298 H   0  0  0  0  0  0  0  0  0  0  0  0
    6.8129    8.8309   -0.6514 H   0  0  0  0  0  0  0  0  0  0  0  0
    6.8764   10.5858   -2.4938 H   0  0  0  0  0  0  0  0  0  0  0  0
    5.7456   12.6927   -1.9466 H   0  0  0  0  0  0  0  0  0  0  0  0
    1.6203   12.2478   -4.0699 H   0  0  0  0  0  0  0  0  0  0  0  0
   -0.2664   13.5979   -4.9376 H   0  0  0  0  0  0  0  0  0  0  0  0
   -0.9347   15.7210   -3.8358 H   0  0  0  0  0  0  0  0  0  0  0  0
    0.3041   16.5528   -1.8377 H   0  0  0  0  0  0  0  0  0  0  0  0
    2.0226   16.9034    0.2846 H   0  0  0  0  0  0  0  0  0  0  0  0
    3.8138   16.6968    2.0074 H   0  0  0  0  0  0  0  0  0  0  0  0
    5.3191   14.7218    2.0273 H   0  0  0  0  0  0  0  0  0  0  0  0
    5.0969   12.9301    0.3292 H   0  0  0  0  0  0  0  0  0  0  0  0
    1.9078   10.7311   -2.2930 H   0  0  0  0  0  0  0  0  0  0  0  0
    3.0357    8.6228   -2.8760 H   0  0  0  0  0  0  0  0  0  0  0  0
    5.0217    8.4097   -5.6110 H   0  0  0  0  0  0  0  0  0  0  0  0
    3.8070    6.7221   -6.9730 H   0  0  0  0  0  0  0  0  0  0  0  0
    4.7230    5.8832   -2.1141 H   0  0  0  0  0  0  0  0  0  0  0  0
    5.1681    2.7432   -4.0902 H   0  0  0  0  0  0  0  0  0  0  0  0
    4.0625    1.6822   -3.2483 H   0  0  0  0  0  0  0  0  0  0  0  0
    5.3182    3.9188   -1.6086 H   0  0  0  0  0  0  0  0  0  0  0  0
    6.3731    2.6345   -2.1479 H   0  0  0  0  0  0  0  0  0  0  0  0
    3.8089    2.1090   -0.5422 H   0  0  0  0  0  0  0  0  0  0  0  0
    5.3981    2.3480    0.1761 H   0  0  0  0  0  0  0  0  0  0  0  0
    6.2889    0.3682   -1.0647 H   0  0  0  0  0  0  0  0  0  0  0  0
    4.7182    0.1074   -1.8182 H   0  0  0  0  0  0  0  0  0  0  0  0
    3.6793   -0.2426    0.4482 H   0  0  0  0  0  0  0  0  0  0  0  0
    5.2481    0.0143    1.2092 H   0  0  0  0  0  0  0  0  0  0  0  0
    6.1745   -1.9796   -0.0320 H   0  0  0  0  0  0  0  0  0  0  0  0
    4.6049   -2.2349   -0.7914 H   0  0  0  0  0  0  0  0  0  0  0  0
    3.5651   -2.5933    1.4768 H   0  0  0  0  0  0  0  0  0  0  0  0
    5.1333   -2.3363    2.2376 H   0  0  0  0  0  0  0  0  0  0  0  0
    4.4779   -4.6221    0.2590 H   0  0  0  0  0  0  0  0  0  0  0  0
    4.6511   -4.7913    2.0210 H   0  0  0  0  0  0  0  0  0  0  0  0
    6.0607   -4.3638    1.0235 H   0  0  0  0  0  0  0  0  0  0  0  0
    2.8782    4.1173   -1.4334 H   0  0  0  0  0  0  0  0  0  0  0  0
    1.9877    2.7526   -2.1040 H   0  0  0  0  0  0  0  0  0  0  0  0
    0.6097    4.3609   -3.4887 H   0  0  0  0  0  0  0  0  0  0  0  0
    1.4347    5.7107   -2.7241 H   0  0  0  0  0  0  0  0  0  0  0  0
   -0.2978    3.5816   -1.3268 H   0  0  0  0  0  0  0  0  0  0  0  0
   -0.8088    5.2181   -1.7232 H   0  0  0  0  0  0  0  0  0  0  0  0
    1.3702    4.4691    0.3208 H   0  0  0  0  0  0  0  0  0  0  0  0
   -0.2873    4.9256    0.6838 H   0  0  0  0  0  0  0  0  0  0  0  0
    0.1143    7.1992   -0.3347 H   0  0  0  0  0  0  0  0  0  0  0  0
    1.7922    6.7577   -0.6498 H   0  0  0  0  0  0  0  0  0  0  0  0
    2.1699    6.4033    1.8146 H   0  0  0  0  0  0  0  0  0  0  0  0
    0.4952    6.8448    2.1369 H   0  0  0  0  0  0  0  0  0  0  0  0
    0.9054    9.1324    1.1696 H   0  0  0  0  0  0  0  0  0  0  0  0
    2.5784    8.6939    0.8323 H   0  0  0  0  0  0  0  0  0  0  0  0
    1.3132    8.8107    3.6527 H   0  0  0  0  0  0  0  0  0  0  0  0
    2.4230   10.0172    2.9642 H   0  0  0  0  0  0  0  0  0  0  0  0
    2.9999    8.3703    3.3144 H   0  0  0  0  0  0  0  0  0  0  0  0
    1.8349    1.3492   -4.2455 H   0  0  0  0  0  0  0  0  0  0  0  0
    0.3985   -0.0247   -4.5237 H   0  0  0  0  0  0  0  0  0  0  0  0
   -0.8311   -2.0811   -4.9750 H   0  0  0  0  0  0  0  0  0  0  0  0
   -0.5634   -1.3347   -9.2176 H   0  0  0  0  0  0  0  0  0  0  0  0
    0.6900    0.7105   -8.7915 H   0  0  0  0  0  0  0  0  0  0  0  0
    1.2108    2.6020   -8.3608 H   0  0  0  0  0  0  0  0  0  0  0  0
    2.4451    4.6612   -7.9491 H   0  0  0  0  0  0  0  0  0  0  0  0
    7.3944    6.8493   -4.4460 H   0  0  0  0  0  0  0  0  0  0  0  0
  1  2  1  0
  1 99  1  0
  1100  1  0
  1101  1  0
  2  3  1  0
  2102  1  0
  2103  1  0
  3  4  1  0
  3104  1  0
  3105  1  0
  4  5  1  0
  4106  1  0
  4107  1  0
  5  6  1  0
  5108  1  0
  5109  1  0
  6  7  1  0
  6110  1  0
  6111  1  0
  7  8  1  0
  7112  1  0
  7113  1  0
  9  8  1  6
  8114  1  0
  8115  1  0
  9 10  1  0
  9 18  1  0
  9 98  1  0
 10 11  1  0
 10116  1  0
 10117  1  0
 11 12  1  0
 11118  1  0
 11119  1  0
 12 13  1  0
 12120  1  0
 12121  1  0
 13 14  1  0
 13122  1  0
 13123  1  0
 14 15  1  0
 14124  1  0
 14125  1  0
 15 16  1  0
 15126  1  0
 15127  1  0
 16 17  1  0
 16128  1  0
 16129  1  0
 17130  1  0
 17131  1  0
 17132  1  0
 18 19  2  0
 18 33  1  0
 19 20  1  0
 19133  1  0
 20 21  1  0
 20 31  2  0
 21 22  2  0
 21 30  1  0
 22 23  1  0
 22134  1  0
 23 24  2  0
 23135  1  0
 24 25  1  0
 24 29  1  0
 25 26  1  6
 25 27  1  0
 25 28  1  0
 29 30  2  0
 29136  1  0
 30137  1  0
 31 32  1  0
 31138  1  0
 32 33  2  0
 32139  1  0
 33 34  1  0
 34 35  2  0
 34 98  1  0
 35 36  1  0
 35140  1  0
 36 37  2  0
 36141  1  0
 37 38  1  0
 37 97  1  0
 38 39  1  0
 38 58  1  0
 39 40  2  0
 39 57  1  0
 40 41  1  0
 40142  1  0
 41 42  2  0
 41143  1  0
 42 43  1  0
 42 56  1  0
 43 44  1  0
 43 55  1  0
 44 45  2  0
 44 49  1  0
 45 46  1  0
 45144  1  0
 46 47  2  0
 46145  1  0
 47 48  1  0
 47146  1  0
 48 49  2  0
 48147  1  0
 49 50  1  0
 50 51  1  0
 50 55  2  0
 51 52  2  0
 51148  1  0
 52 53  1  0
 52149  1  0
 53 54  2  0
 53150  1  0
 54 55  1  0
 54151  1  0
 56 57  2  0
 56152  1  0
 57153  1  0
 58 59  2  0
 58 63  1  0
 59 60  1  0
 59154  1  0
 60 61  2  0
 60155  1  0
 61 62  1  0
 61 96  1  0
 62 63  2  0
 62 64  1  0
 63156  1  0
 64 65  1  1
 64 73  1  0
 64 81  1  0
 65 66  1  0
 65157  1  0
 65158  1  0
 66 67  1  0
 66159  1  0
 66160  1  0
 67 68  1  0
 67161  1  0
 67162  1  0
 68 69  1  0
 68163  1  0
 68164  1  0
 69 70  1  0
 69165  1  0
 69166  1  0
 70 71  1  0
 70167  1  0
 70168  1  0
 71 72  1  0
 71169  1  0
 71170  1  0
 72171  1  0
 72172  1  0
 72173  1  0
 73 74  1  0
 73174  1  0
 73175  1  0
 74 75  1  0
 74176  1  0
 74177  1  0
 75 76  1  0
 75178  1  0
 75179  1  0
 76 77  1  0
 76180  1  0
 76181  1  0
 77 78  1  0
 77182  1  0
 77183  1  0
 78 79  1  0
 78184  1  0
 78185  1  0
 79 80  1  0
 79186  1  0
 79187  1  0
 80188  1  0
 80189  1  0
 80190  1  0
 81 82  1  0
 81 96  2  0
 82 83  2  0
 82191  1  0
 83 84  1  0
 83 94  1  0
 84 85  2  0
 84 93  1  0
 85 86  1  0
 85192  1  0
 86 87  2  0
 86193  1  0
 87 88  1  0
 87 92  1  0
 88 89  1  1
 88 90  1  0
 88 91  1  0
 92 93  2  0
 92194  1  0
 93195  1  0
 94 95  2  0
 94196  1  0
 95 96  1  0
 95197  1  0
 97 98  2  0
 97198  1  0
M  END

