
     RDKit          3D

 38 41  0  0  0  0  0  0  0  0999 V2000
    2.4558    2.7456   -0.6862 N   0  0  0  0  0  0  0  0  0  0  0  0
    3.3597    2.2276   -0.1711 C   0  0  0  0  0  0  0  0  0  0  0  0
    4.4713    1.5768    0.4578 C   0  0  0  0  0  0  0  0  0  0  0  0
    5.3314    2.4012    1.2545 C   0  0  0  0  0  0  0  0  0  0  0  0
    6.0222    3.0788    1.8978 N   0  0  0  0  0  0  0  0  0  0  0  0
    4.6625    0.2238    0.2758 C   0  0  0  0  0  0  0  0  0  0  0  0
    5.6869   -0.6019    0.8024 C   0  0  0  0  0  0  0  0  0  0  0  0
    5.9305   -1.9627    0.6551 C   0  0  0  0  0  0  0  0  0  0  0  0
    7.0903   -2.2558    1.4027 C   0  0  0  0  0  0  0  0  0  0  0  0
    7.5057   -1.0566    1.9743 C   0  0  0  0  0  0  0  0  0  0  0  0
    8.6054   -0.6597    2.8395 C   0  0  0  0  0  0  0  0  0  0  0  0
    8.7327    0.6854    3.2362 C   0  0  0  0  0  0  0  0  0  0  0  0
    9.7751    1.0999    4.0660 C   0  0  0  0  0  0  0  0  0  0  0  0
   10.7097    0.1728    4.5139 C   0  0  0  0  0  0  0  0  0  0  0  0
   10.6256   -1.1827    4.1450 C   0  0  0  0  0  0  0  0  0  0  0  0
   11.5998   -2.1655    4.6083 C   0  0  0  0  0  0  0  0  0  0  0  0
   11.5487   -3.4336    4.2833 N   0  0  0  0  0  0  0  0  0  0  0  0
   12.5732   -4.1727    4.8367 C   0  0  0  0  0  0  0  0  0  0  0  0
   12.7833   -5.5522    4.6699 C   0  0  0  0  0  0  0  0  0  0  0  0
   13.8714   -6.1470    5.3012 C   0  0  0  0  0  0  0  0  0  0  0  0
   14.7524   -5.3883    6.0953 C   0  0  0  0  0  0  0  0  0  0  0  0
   14.5607   -4.0182    6.2730 C   0  0  0  0  0  0  0  0  0  0  0  0
   13.4673   -3.4189    5.6389 C   0  0  0  0  0  0  0  0  0  0  0  0
   12.9595   -1.7436    5.6638 S   0  0  0  0  0  0  0  0  0  0  0  0
    9.5610   -1.6111    3.2957 C   0  0  0  0  0  0  0  0  0  0  0  0
    9.4386   -2.8808    2.9184 O   0  0  0  0  0  0  0  0  0  0  0  0
    6.6528   -0.0702    1.6044 O   0  0  0  0  0  0  0  0  0  0  0  0
    3.9364   -0.2936   -0.3552 H   0  0  0  0  0  0  0  0  0  0  0  0
    5.3289   -2.6562    0.0704 H   0  0  0  0  0  0  0  0  0  0  0  0
    7.5834   -3.2128    1.5261 H   0  0  0  0  0  0  0  0  0  0  0  0
    7.9984    1.4126    2.8847 H   0  0  0  0  0  0  0  0  0  0  0  0
    9.8529    2.1479    4.3605 H   0  0  0  0  0  0  0  0  0  0  0  0
   11.5254    0.4993    5.1642 H   0  0  0  0  0  0  0  0  0  0  0  0
   12.0947   -6.1316    4.0519 H   0  0  0  0  0  0  0  0  0  0  0  0
   14.0459   -7.2186    5.1795 H   0  0  0  0  0  0  0  0  0  0  0  0
   15.5997   -5.8782    6.5808 H   0  0  0  0  0  0  0  0  0  0  0  0
   15.2460   -3.4331    6.8897 H   0  0  0  0  0  0  0  0  0  0  0  0
   10.1919   -3.4026    3.3292 H   0  0  0  0  0  0  0  0  0  0  0  0
  1  2  3  0
  2  3  1  0
  3  4  1  0
  3  6  2  0
  4  5  3  0
  6  7  1  0
  6 28  1  0
  7  8  2  0
  7 27  1  0
  8  9  1  0
  8 29  1  0
  9 10  2  0
  9 30  1  0
 10 11  1  0
 10 27  1  0
 11 12  2  0
 11 25  1  0
 12 13  1  0
 12 31  1  0
 13 14  2  0
 13 32  1  0
 14 15  1  0
 14 33  1  0
 15 16  1  0
 15 25  2  0
 16 17  2  0
 16 24  1  0
 17 18  1  0
 18 19  2  0
 18 23  1  0
 19 20  1  0
 19 34  1  0
 20 21  2  0
 20 35  1  0
 21 22  1  0
 21 36  1  0
 22 23  2  0
 22 37  1  0
 23 24  1  0
 25 26  1  0
 26 38  1  0
M  END

