
     RDKit          3D

 81 88  0  0  0  0  0  0  0  0999 V2000
    2.7362   -1.0198    2.6625 O   0  0  0  0  0  0  0  0  0  0  0  0
    3.1639    0.2738    2.0171 P   0  0  1  0  0  0  0  0  0  0  0  0
    1.9820    0.8221    0.7257 C   0  0  0  0  0  0  0  0  0  0  0  0
    1.8339    2.1510    0.2982 C   0  0  0  0  0  0  0  0  0  0  0  0
    0.9075    2.4684   -0.6997 C   0  0  0  0  0  0  0  0  0  0  0  0
    0.1186    1.4639   -1.2691 C   0  0  0  0  0  0  0  0  0  0  0  0
    0.2508    0.1412   -0.8343 C   0  0  0  0  0  0  0  0  0  0  0  0
    1.1759   -0.1802    0.1619 C   0  0  0  0  0  0  0  0  0  0  0  0
    3.2998    1.6397    3.2331 C   0  0  0  0  0  0  0  0  0  0  0  0
    4.0827    2.7910    3.0523 C   0  0  0  0  0  0  0  0  0  0  0  0
    4.1146    3.7801    4.0398 C   0  0  0  0  0  0  0  0  0  0  0  0
    3.3738    3.6214    5.2153 C   0  0  0  0  0  0  0  0  0  0  0  0
    2.6059    2.4684    5.4070 C   0  0  0  0  0  0  0  0  0  0  0  0
    2.5702    1.4781    4.4222 C   0  0  0  0  0  0  0  0  0  0  0  0
    4.7998    0.1212    1.2011 C   0  0  0  0  0  0  0  0  0  0  0  0
    5.2658    0.9614    0.1764 C   0  0  0  0  0  0  0  0  0  0  0  0
    6.5280    0.7635   -0.3790 C   0  0  0  0  0  0  0  0  0  0  0  0
    7.3504   -0.2917    0.0615 C   0  0  0  0  0  0  0  0  0  0  0  0
    8.6891   -0.4191   -0.5450 C   0  0  0  0  0  0  0  0  0  0  0  0
    9.3585    0.6143   -1.0019 N   0  0  0  0  0  0  0  0  0  0  0  0
   10.5653    0.1264   -1.4485 C   0  0  0  0  0  0  0  0  0  0  0  0
   11.6508    0.8000   -2.0329 C   0  0  0  0  0  0  0  0  0  0  0  0
   12.7592    0.0491   -2.4140 C   0  0  0  0  0  0  0  0  0  0  0  0
   12.7964   -1.3500   -2.2260 C   0  0  0  0  0  0  0  0  0  0  0  0
   11.7309   -2.0387   -1.6458 C   0  0  0  0  0  0  0  0  0  0  0  0
   10.6251   -1.2761   -1.2529 C   0  0  0  0  0  0  0  0  0  0  0  0
    9.4050   -1.6165   -0.6704 N   0  0  0  0  0  0  0  0  0  0  0  0
    8.9608   -2.9544   -0.4619 C   0  0  0  0  0  0  0  0  0  0  0  0
    9.6659   -3.7946    0.4110 C   0  0  0  0  0  0  0  0  0  0  0  0
    9.2504   -5.1138    0.5971 C   0  0  0  0  0  0  0  0  0  0  0  0
    8.1245   -5.6072   -0.0803 C   0  0  0  0  0  0  0  0  0  0  0  0
    7.6742   -7.3542    0.2700 P   0  0  1  0  0  0  0  0  0  0  0  0
    8.2701   -7.8233    1.5722 O   0  0  0  0  0  0  0  0  0  0  0  0
    5.8439   -7.4270    0.2721 C   0  0  0  0  0  0  0  0  0  0  0  0
    5.0535   -7.5301   -0.8837 C   0  0  0  0  0  0  0  0  0  0  0  0
    3.6599   -7.5651   -0.7787 C   0  0  0  0  0  0  0  0  0  0  0  0
    3.0497   -7.5051    0.4781 C   0  0  0  0  0  0  0  0  0  0  0  0
    3.8339   -7.4190    1.6329 C   0  0  0  0  0  0  0  0  0  0  0  0
    5.2267   -7.3840    1.5331 C   0  0  0  0  0  0  0  0  0  0  0  0
    8.2566   -8.3477   -1.1562 C   0  0  0  0  0  0  0  0  0  0  0  0
    8.7181   -9.6396   -0.8555 C   0  0  0  0  0  0  0  0  0  0  0  0
    9.1772  -10.4754   -1.8765 C   0  0  0  0  0  0  0  0  0  0  0  0
    9.1862  -10.0261   -3.2009 C   0  0  0  0  0  0  0  0  0  0  0  0
    8.7426   -8.7349   -3.5037 C   0  0  0  0  0  0  0  0  0  0  0  0
    8.2827   -7.8952   -2.4850 C   0  0  0  0  0  0  0  0  0  0  0  0
    7.4120   -4.7542   -0.9372 C   0  0  0  0  0  0  0  0  0  0  0  0
    7.8346   -3.4399   -1.1407 C   0  0  0  0  0  0  0  0  0  0  0  0
    6.8789   -1.1320    1.0865 C   0  0  0  0  0  0  0  0  0  0  0  0
    5.6170   -0.9286    1.6461 C   0  0  0  0  0  0  0  0  0  0  0  0
    2.4258    2.9482    0.7543 H   0  0  0  0  0  0  0  0  0  0  0  0
    0.7952    3.5053   -1.0267 H   0  0  0  0  0  0  0  0  0  0  0  0
   -0.6078    1.7148   -2.0465 H   0  0  0  0  0  0  0  0  0  0  0  0
   -0.3751   -0.6431   -1.2681 H   0  0  0  0  0  0  0  0  0  0  0  0
    1.2756   -1.2051    0.5277 H   0  0  0  0  0  0  0  0  0  0  0  0
    4.6876    2.9143    2.1507 H   0  0  0  0  0  0  0  0  0  0  0  0
    4.7285    4.6727    3.8945 H   0  0  0  0  0  0  0  0  0  0  0  0
    3.4033    4.3942    5.9878 H   0  0  0  0  0  0  0  0  0  0  0  0
    2.0369    2.3363    6.3309 H   0  0  0  0  0  0  0  0  0  0  0  0
    1.9913    0.5626    4.5658 H   0  0  0  0  0  0  0  0  0  0  0  0
    4.6368    1.7671   -0.2099 H   0  0  0  0  0  0  0  0  0  0  0  0
    6.9004    1.4203   -1.1665 H   0  0  0  0  0  0  0  0  0  0  0  0
   11.6076    1.8809   -2.1803 H   0  0  0  0  0  0  0  0  0  0  0  0
   13.6182    0.5469   -2.8707 H   0  0  0  0  0  0  0  0  0  0  0  0
   13.6813   -1.9080   -2.5422 H   0  0  0  0  0  0  0  0  0  0  0  0
   11.7647   -3.1207   -1.5071 H   0  0  0  0  0  0  0  0  0  0  0  0
   10.5295   -3.4042    0.9535 H   0  0  0  0  0  0  0  0  0  0  0  0
    9.7784   -5.7718    1.2914 H   0  0  0  0  0  0  0  0  0  0  0  0
    5.5194   -7.6032   -1.8696 H   0  0  0  0  0  0  0  0  0  0  0  0
    3.0492   -7.6476   -1.6814 H   0  0  0  0  0  0  0  0  0  0  0  0
    1.9599   -7.5331    0.5581 H   0  0  0  0  0  0  0  0  0  0  0  0
    3.3587   -7.3828    2.6164 H   0  0  0  0  0  0  0  0  0  0  0  0
    5.8526   -7.3368    2.4274 H   0  0  0  0  0  0  0  0  0  0  0  0
    8.7251   -9.9689    0.1863 H   0  0  0  0  0  0  0  0  0  0  0  0
    9.5358  -11.4796   -1.6362 H   0  0  0  0  0  0  0  0  0  0  0  0
    9.5484  -10.6800   -3.9984 H   0  0  0  0  0  0  0  0  0  0  0  0
    8.7627   -8.3761   -4.5360 H   0  0  0  0  0  0  0  0  0  0  0  0
    7.9627   -6.8799   -2.7316 H   0  0  0  0  0  0  0  0  0  0  0  0
    6.5118   -5.1056   -1.4468 H   0  0  0  0  0  0  0  0  0  0  0  0
    7.2874   -2.7816   -1.8179 H   0  0  0  0  0  0  0  0  0  0  0  0
    7.5007   -1.9426    1.4675 H   0  0  0  0  0  0  0  0  0  0  0  0
    5.2460   -1.5902    2.4323 H   0  0  0  0  0  0  0  0  0  0  0  0
  1  2  2  0
  2  3  1  6
  2  9  1  0
  2 15  1  0
  3  4  2  0
  3  8  1  0
  4  5  1  0
  4 50  1  0
  5  6  2  0
  5 51  1  0
  6  7  1  0
  6 52  1  0
  7  8  2  0
  7 53  1  0
  8 54  1  0
  9 10  2  0
  9 14  1  0
 10 11  1  0
 10 55  1  0
 11 12  2  0
 11 56  1  0
 12 13  1  0
 12 57  1  0
 13 14  2  0
 13 58  1  0
 14 59  1  0
 15 16  2  0
 15 49  1  0
 16 17  1  0
 16 60  1  0
 17 18  2  0
 17 61  1  0
 18 19  1  0
 18 48  1  0
 19 20  2  0
 19 27  1  0
 20 21  1  0
 21 22  2  0
 21 26  1  0
 22 23  1  0
 22 62  1  0
 23 24  2  0
 23 63  1  0
 24 25  1  0
 24 64  1  0
 25 26  2  0
 25 65  1  0
 26 27  1  0
 27 28  1  0
 28 29  2  0
 28 47  1  0
 29 30  1  0
 29 66  1  0
 30 31  2  0
 30 67  1  0
 32 31  1  6
 31 46  1  0
 32 33  2  0
 32 34  1  0
 32 40  1  0
 34 35  2  0
 34 39  1  0
 35 36  1  0
 35 68  1  0
 36 37  2  0
 36 69  1  0
 37 38  1  0
 37 70  1  0
 38 39  2  0
 38 71  1  0
 39 72  1  0
 40 41  2  0
 40 45  1  0
 41 42  1  0
 41 73  1  0
 42 43  2  0
 42 74  1  0
 43 44  1  0
 43 75  1  0
 44 45  2  0
 44 76  1  0
 45 77  1  0
 46 47  2  0
 46 78  1  0
 47 79  1  0
 48 49  2  0
 48 80  1  0
 49 81  1  0
M  END

