
     RDKit          3D

 72 81  0  0  0  0  0  0  0  0999 V2000
   -0.0597    8.8158    0.3372 N   0  0  0  0  0  0  0  0  0  0  0  0
    0.3002    7.7134    0.3249 C   0  0  0  0  0  0  0  0  0  0  0  0
    0.7499    6.3431    0.3104 C   0  0  0  0  0  0  0  0  0  0  0  0
   -0.1652    5.3913    0.1886 N   0  0  0  0  0  0  0  0  0  0  0  0
    0.2298    4.1110    0.1729 C   0  0  0  0  0  0  0  0  0  0  0  0
   -0.7679    3.0577    0.0394 C   0  0  0  0  0  0  0  0  0  0  0  0
   -2.1360    3.3858   -0.0730 C   0  0  0  0  0  0  0  0  0  0  0  0
   -3.0936    2.3947   -0.2037 C   0  0  0  0  0  0  0  0  0  0  0  0
   -2.7012    1.0408   -0.2166 C   0  0  0  0  0  0  0  0  0  0  0  0
   -3.6792    0.0115   -0.3502 N   0  0  0  0  0  0  0  0  0  0  0  0
   -3.8894   -0.6174   -1.5968 C   0  0  0  0  0  0  0  0  0  0  0  0
   -3.1718   -0.2816   -2.7533 C   0  0  0  0  0  0  0  0  0  0  0  0
   -3.4148   -0.9368   -3.9674 C   0  0  0  0  0  0  0  0  0  0  0  0
   -4.3846   -1.9335   -4.0475 C   0  0  0  0  0  0  0  0  0  0  0  0
   -5.1189   -2.2693   -2.9036 C   0  0  0  0  0  0  0  0  0  0  0  0
   -4.8779   -1.6204   -1.6973 C   0  0  0  0  0  0  0  0  0  0  0  0
   -5.6423   -1.9920   -0.6190 O   0  0  0  0  0  0  0  0  0  0  0  0
   -5.4623   -1.3538    0.5831 C   0  0  0  0  0  0  0  0  0  0  0  0
   -6.2766   -1.7440    1.6409 C   0  0  0  0  0  0  0  0  0  0  0  0
   -6.1344   -1.1492    2.9005 C   0  0  0  0  0  0  0  0  0  0  0  0
   -5.1644   -0.1668    3.0860 C   0  0  0  0  0  0  0  0  0  0  0  0
   -4.3436    0.2271    2.0213 C   0  0  0  0  0  0  0  0  0  0  0  0
   -4.4838   -0.3503    0.7515 C   0  0  0  0  0  0  0  0  0  0  0  0
   -1.3544    0.7077   -0.1006 C   0  0  0  0  0  0  0  0  0  0  0  0
   -0.3556    1.6968    0.0230 C   0  0  0  0  0  0  0  0  0  0  0  0
    1.0712    1.3575    0.1414 C   0  0  0  0  0  0  0  0  0  0  0  0
    1.5286    0.0228    0.1263 C   0  0  0  0  0  0  0  0  0  0  0  0
    2.8805   -0.2870    0.2449 C   0  0  0  0  0  0  0  0  0  0  0  0
    3.2997   -1.6505    0.2396 N   0  0  0  0  0  0  0  0  0  0  0  0
    3.2101   -2.4278    1.4145 C   0  0  0  0  0  0  0  0  0  0  0  0
    2.7287   -1.9222    2.6301 C   0  0  0  0  0  0  0  0  0  0  0  0
    2.6558   -2.7343    3.7692 C   0  0  0  0  0  0  0  0  0  0  0  0
    3.0695   -4.0633    3.7138 C   0  0  0  0  0  0  0  0  0  0  0  0
    3.5643   -4.5780    2.5092 C   0  0  0  0  0  0  0  0  0  0  0  0
    3.6356   -3.7732    1.3772 C   0  0  0  0  0  0  0  0  0  0  0  0
    4.1369   -4.3403    0.2314 O   0  0  0  0  0  0  0  0  0  0  0  0
    4.2696   -3.5688   -0.8966 C   0  0  0  0  0  0  0  0  0  0  0  0
    4.8197   -4.1726   -2.0222 C   0  0  0  0  0  0  0  0  0  0  0  0
    4.9678   -3.4498   -3.2123 C   0  0  0  0  0  0  0  0  0  0  0  0
    4.5547   -2.1203   -3.2597 C   0  0  0  0  0  0  0  0  0  0  0  0
    4.0008   -1.5107   -2.1265 C   0  0  0  0  0  0  0  0  0  0  0  0
    3.8555   -2.2195   -0.9259 C   0  0  0  0  0  0  0  0  0  0  0  0
    3.8297    0.7467    0.3754 C   0  0  0  0  0  0  0  0  0  0  0  0
    3.4105    2.0662    0.3843 C   0  0  0  0  0  0  0  0  0  0  0  0
    2.0415    2.3893    0.2706 C   0  0  0  0  0  0  0  0  0  0  0  0
    1.6135    3.7821    0.2861 C   0  0  0  0  0  0  0  0  0  0  0  0
    2.5320    4.7500    0.4086 N   0  0  0  0  0  0  0  0  0  0  0  0
    2.1327    6.0144    0.4235 C   0  0  0  0  0  0  0  0  0  0  0  0
    3.1394    7.0384    0.5573 C   0  0  0  0  0  0  0  0  0  0  0  0
    3.9472    7.8635    0.6650 N   0  0  0  0  0  0  0  0  0  0  0  0
   -2.4173    4.4393   -0.0618 H   0  0  0  0  0  0  0  0  0  0  0  0
   -4.1514    2.6472   -0.2984 H   0  0  0  0  0  0  0  0  0  0  0  0
   -2.4150    0.5017   -2.7070 H   0  0  0  0  0  0  0  0  0  0  0  0
   -2.8370   -0.6543   -4.8503 H   0  0  0  0  0  0  0  0  0  0  0  0
   -4.5791   -2.4490   -4.9903 H   0  0  0  0  0  0  0  0  0  0  0  0
   -5.8935   -3.0385   -2.9239 H   0  0  0  0  0  0  0  0  0  0  0  0
   -7.0180   -2.5234    1.4542 H   0  0  0  0  0  0  0  0  0  0  0  0
   -6.7782   -1.4611    3.7256 H   0  0  0  0  0  0  0  0  0  0  0  0
   -5.0323    0.3035    4.0630 H   0  0  0  0  0  0  0  0  0  0  0  0
   -3.5833    0.9916    2.1824 H   0  0  0  0  0  0  0  0  0  0  0  0
   -1.0954   -0.3502   -0.1084 H   0  0  0  0  0  0  0  0  0  0  0  0
    0.8299   -0.8062    0.0222 H   0  0  0  0  0  0  0  0  0  0  0  0
    2.4076   -0.8821    2.6892 H   0  0  0  0  0  0  0  0  0  0  0  0
    2.2734   -2.3119    4.7012 H   0  0  0  0  0  0  0  0  0  0  0  0
    3.0150   -4.7024    4.5975 H   0  0  0  0  0  0  0  0  0  0  0  0
    3.9051   -5.6117    2.4234 H   0  0  0  0  0  0  0  0  0  0  0  0
    5.1242   -5.2181   -1.9437 H   0  0  0  0  0  0  0  0  0  0  0  0
    5.4006   -3.9316   -4.0915 H   0  0  0  0  0  0  0  0  0  0  0  0
    4.6563   -1.5414   -4.1804 H   0  0  0  0  0  0  0  0  0  0  0  0
    3.6759   -0.4713   -2.1788 H   0  0  0  0  0  0  0  0  0  0  0  0
    4.8874    0.4941    0.4707 H   0  0  0  0  0  0  0  0  0  0  0  0
    4.1269    2.8820    0.4865 H   0  0  0  0  0  0  0  0  0  0  0  0
  1  2  3  0
  2  3  1  0
  3  4  2  0
  3 48  1  0
  4  5  1  0
  5  6  2  0
  5 46  1  0
  6  7  1  0
  6 25  1  0
  7  8  2  0
  7 51  1  0
  8  9  1  0
  8 52  1  0
  9 10  1  0
  9 24  2  0
 10 11  1  0
 10 23  1  0
 11 12  2  0
 11 16  1  0
 12 13  1  0
 12 53  1  0
 13 14  2  0
 13 54  1  0
 14 15  1  0
 14 55  1  0
 15 16  2  0
 15 56  1  0
 16 17  1  0
 17 18  1  0
 18 19  2  0
 18 23  1  0
 19 20  1  0
 19 57  1  0
 20 21  2  0
 20 58  1  0
 21 22  1  0
 21 59  1  0
 22 23  2  0
 22 60  1  0
 24 25  1  0
 24 61  1  0
 25 26  2  0
 26 27  1  0
 26 45  1  0
 27 28  2  0
 27 62  1  0
 28 29  1  0
 28 43  1  0
 29 30  1  0
 29 42  1  0
 30 31  2  0
 30 35  1  0
 31 32  1  0
 31 63  1  0
 32 33  2  0
 32 64  1  0
 33 34  1  0
 33 65  1  0
 34 35  2  0
 34 66  1  0
 35 36  1  0
 36 37  1  0
 37 38  2  0
 37 42  1  0
 38 39  1  0
 38 67  1  0
 39 40  2  0
 39 68  1  0
 40 41  1  0
 40 69  1  0
 41 42  2  0
 41 70  1  0
 43 44  2  0
 43 71  1  0
 44 45  1  0
 44 72  1  0
 45 46  2  0
 46 47  1  0
 47 48  2  0
 48 49  1  0
 49 50  3  0
M  END

