
     RDKit          3D

104109  0  0  0  0  0  0  0  0999 V2000
    2.8944    2.0950    0.2732 C   0  0  0  0  0  0  0  0  0  0  0  0
    2.8891    0.9032   -0.7019 C   0  0  1  0  0  0  0  0  0  0  0  0
    3.0428   -0.4250    0.0616 C   0  0  0  0  0  0  0  0  0  0  0  0
    1.4221    0.9143   -1.9465 Si  0  0  1  0  0  4  0  0  0  0  0  0
    1.2908   -0.8035   -2.6340 C   0  0  0  0  0  0  0  0  0  0  0  0
    1.2628   -1.9529   -3.0576 C   0  0  0  0  0  0  0  0  0  0  0  0
    1.2275   -3.2852   -3.5542 C   0  0  0  0  0  0  0  0  0  0  0  0
    0.2646   -3.6867   -4.5217 C   0  0  0  0  0  0  0  0  0  0  0  0
   -0.7087   -2.7668   -5.0237 C   0  0  0  0  0  0  0  0  0  0  0  0
   -1.6388   -3.1521   -5.9571 C   0  0  0  0  0  0  0  0  0  0  0  0
   -1.6512   -4.4882   -6.4468 C   0  0  0  0  0  0  0  0  0  0  0  0
   -0.7346   -5.4025   -5.9889 C   0  0  0  0  0  0  0  0  0  0  0  0
    0.2513   -5.0439   -5.0169 C   0  0  0  0  0  0  0  0  0  0  0  0
    1.2008   -5.9931   -4.5408 C   0  0  0  0  0  0  0  0  0  0  0  0
    1.1907   -7.3339   -5.0175 C   0  0  0  0  0  0  0  0  0  0  0  0
    1.1422   -8.4802   -5.4485 C   0  0  0  0  0  0  0  0  0  0  0  0
    1.0812  -10.2273   -6.0627 Si  0  0  1  0  0  4  0  0  0  0  0  0
   -0.3386  -10.3488   -7.3484 C   0  0  1  0  0  0  0  0  0  0  0  0
   -1.7187  -10.0580   -6.7333 C   0  0  0  0  0  0  0  0  0  0  0  0
   -0.0905   -9.4621   -8.5813 C   0  0  0  0  0  0  0  0  0  0  0  0
    2.7601  -10.5630   -6.9309 C   0  0  1  0  0  0  0  0  0  0  0  0
    3.9882  -10.3470   -6.0307 C   0  0  0  0  0  0  0  0  0  0  0  0
    2.8285  -11.9188   -7.6554 C   0  0  0  0  0  0  0  0  0  0  0  0
    0.6646  -11.3185   -4.5387 C   0  0  1  0  0  0  0  0  0  0  0  0
    0.4448  -12.8051   -4.8705 C   0  0  0  0  0  0  0  0  0  0  0  0
    1.6332  -11.1479   -3.3562 C   0  0  0  0  0  0  0  0  0  0  0  0
    2.1638   -5.5912   -3.5721 C   0  0  0  0  0  0  0  0  0  0  0  0
    3.0702   -6.4905   -3.1177 N   0  0  0  0  0  0  0  0  0  0  0  0
    3.9546   -6.1095   -2.2197 C   0  0  0  0  0  0  0  0  0  0  0  0
    3.9597   -4.7446   -1.7158 C   0  0  0  0  0  0  0  0  0  0  0  0
    4.9386   -4.3566   -0.7225 C   0  0  0  0  0  0  0  0  0  0  0  0
    5.8521   -5.2467   -0.2580 C   0  0  0  0  0  0  0  0  0  0  0  0
    5.9007   -6.6183   -0.7253 C   0  0  0  0  0  0  0  0  0  0  0  0
    6.8473   -7.5154   -0.2398 C   0  0  0  0  0  0  0  0  0  0  0  0
    6.9049   -8.8542   -0.6911 C   0  0  0  0  0  0  0  0  0  0  0  0
    7.8692   -9.7844   -0.2042 C   0  0  0  0  0  0  0  0  0  0  0  0
    7.8954  -11.0809   -0.6695 C   0  0  0  0  0  0  0  0  0  0  0  0
    6.9584  -11.5143   -1.6460 C   0  0  0  0  0  0  0  0  0  0  0  0
    6.0126  -10.6417   -2.1379 C   0  0  0  0  0  0  0  0  0  0  0  0
    5.9548   -9.2929   -1.6798 C   0  0  0  0  0  0  0  0  0  0  0  0
    4.9952   -8.3740   -2.1659 C   0  0  0  0  0  0  0  0  0  0  0  0
    4.9508   -7.0623   -1.7131 C   0  0  0  0  0  0  0  0  0  0  0  0
    3.0855   -3.8550   -2.1491 N   0  0  0  0  0  0  0  0  0  0  0  0
    2.1750   -4.2354   -3.0759 C   0  0  0  0  0  0  0  0  0  0  0  0
   -0.3032    1.3038   -1.1961 C   0  0  1  0  0  0  0  0  0  0  0  0
   -0.6722    0.3623   -0.0356 C   0  0  0  0  0  0  0  0  0  0  0  0
   -0.5349    2.7759   -0.8119 C   0  0  0  0  0  0  0  0  0  0  0  0
    1.8327    2.0228   -3.4633 C   0  0  1  0  0  0  0  0  0  0  0  0
    0.6669    2.0868   -4.4648 C   0  0  0  0  0  0  0  0  0  0  0  0
    2.3741    3.4267   -3.1426 C   0  0  0  0  0  0  0  0  0  0  0  0
    3.8276    2.1108    0.8636 H   0  0  0  0  0  0  0  0  0  0  0  0
    2.0627    2.0285    0.9940 H   0  0  0  0  0  0  0  0  0  0  0  0
    2.8132    3.0685   -0.2347 H   0  0  0  0  0  0  0  0  0  0  0  0
    3.7743    1.0054   -1.3601 H   0  0  0  0  0  0  0  0  0  0  0  0
    2.1944   -0.6003    0.7438 H   0  0  0  0  0  0  0  0  0  0  0  0
    3.9566   -0.4082    0.6826 H   0  0  0  0  0  0  0  0  0  0  0  0
    3.1029   -1.2900   -0.6159 H   0  0  0  0  0  0  0  0  0  0  0  0
   -0.6950   -1.7449   -4.6422 H   0  0  0  0  0  0  0  0  0  0  0  0
   -2.3737   -2.4322   -6.3261 H   0  0  0  0  0  0  0  0  0  0  0  0
   -2.3949   -4.7864   -7.1899 H   0  0  0  0  0  0  0  0  0  0  0  0
   -0.7422   -6.4275   -6.3610 H   0  0  0  0  0  0  0  0  0  0  0  0
   -0.3378  -11.4027   -7.6872 H   0  0  0  0  0  0  0  0  0  0  0  0
   -1.7714   -9.0330   -6.3289 H   0  0  0  0  0  0  0  0  0  0  0  0
   -1.9668  -10.7475   -5.9110 H   0  0  0  0  0  0  0  0  0  0  0  0
   -2.5162  -10.1524   -7.4911 H   0  0  0  0  0  0  0  0  0  0  0  0
   -0.0238   -8.3966   -8.3036 H   0  0  0  0  0  0  0  0  0  0  0  0
   -0.9143   -9.5598   -9.3101 H   0  0  0  0  0  0  0  0  0  0  0  0
    0.8420   -9.7220   -9.1067 H   0  0  0  0  0  0  0  0  0  0  0  0
    2.7883   -9.7720   -7.7043 H   0  0  0  0  0  0  0  0  0  0  0  0
    4.0719  -11.1349   -5.2641 H   0  0  0  0  0  0  0  0  0  0  0  0
    3.9539   -9.3757   -5.5127 H   0  0  0  0  0  0  0  0  0  0  0  0
    4.9193  -10.3762   -6.6235 H   0  0  0  0  0  0  0  0  0  0  0  0
    2.8177  -12.7620   -6.9451 H   0  0  0  0  0  0  0  0  0  0  0  0
    3.7608  -12.0040   -8.2410 H   0  0  0  0  0  0  0  0  0  0  0  0
    1.9900  -12.0676   -8.3547 H   0  0  0  0  0  0  0  0  0  0  0  0
   -0.3096  -10.9040   -4.2166 H   0  0  0  0  0  0  0  0  0  0  0  0
    1.3829  -13.2983   -5.1749 H   0  0  0  0  0  0  0  0  0  0  0  0
   -0.2851  -12.9563   -5.6823 H   0  0  0  0  0  0  0  0  0  0  0  0
    0.0682  -13.3516   -3.9879 H   0  0  0  0  0  0  0  0  0  0  0  0
    2.6188  -11.5919   -3.5719 H   0  0  0  0  0  0  0  0  0  0  0  0
    1.2441  -11.6543   -2.4554 H   0  0  0  0  0  0  0  0  0  0  0  0
    1.7908  -10.0884   -3.1009 H   0  0  0  0  0  0  0  0  0  0  0  0
    4.9053   -3.3245   -0.3692 H   0  0  0  0  0  0  0  0  0  0  0  0
    6.5849   -4.9384    0.4928 H   0  0  0  0  0  0  0  0  0  0  0  0
    7.5682   -7.1786    0.5106 H   0  0  0  0  0  0  0  0  0  0  0  0
    8.5906   -9.4509    0.5467 H   0  0  0  0  0  0  0  0  0  0  0  0
    8.6403  -11.7840   -0.2880 H   0  0  0  0  0  0  0  0  0  0  0  0
    6.9923  -12.5458   -2.0055 H   0  0  0  0  0  0  0  0  0  0  0  0
    5.2908  -10.9701   -2.8896 H   0  0  0  0  0  0  0  0  0  0  0  0
    4.2678   -8.6911   -2.9153 H   0  0  0  0  0  0  0  0  0  0  0  0
   -0.9882    1.0714   -2.0339 H   0  0  0  0  0  0  0  0  0  0  0  0
   -0.0519    0.5534    0.8559 H   0  0  0  0  0  0  0  0  0  0  0  0
   -0.5463   -0.6978   -0.3066 H   0  0  0  0  0  0  0  0  0  0  0  0
   -1.7243    0.5064    0.2676 H   0  0  0  0  0  0  0  0  0  0  0  0
    0.1314    3.1005    0.0035 H   0  0  0  0  0  0  0  0  0  0  0  0
   -1.5710    2.9271   -0.4605 H   0  0  0  0  0  0  0  0  0  0  0  0
   -0.3775    3.4607   -1.6596 H   0  0  0  0  0  0  0  0  0  0  0  0
    2.6529    1.4612   -3.9507 H   0  0  0  0  0  0  0  0  0  0  0  0
   -0.1944    2.6397   -4.0535 H   0  0  0  0  0  0  0  0  0  0  0  0
    0.3130    1.0827   -4.7488 H   0  0  0  0  0  0  0  0  0  0  0  0
    0.9696    2.6043   -5.3921 H   0  0  0  0  0  0  0  0  0  0  0  0
    1.6297    4.0531   -2.6240 H   0  0  0  0  0  0  0  0  0  0  0  0
    2.6484    3.9578   -4.0713 H   0  0  0  0  0  0  0  0  0  0  0  0
    3.2759    3.3922   -2.5116 H   0  0  0  0  0  0  0  0  0  0  0  0
  1  2  1  0
  1 51  1  0
  1 52  1  0
  1 53  1  0
  2  3  1  0
  2  4  1  0
  2 54  1  6
  3 55  1  0
  3 56  1  0
  3 57  1  0
  4  5  1  6
  4 45  1  0
  4 48  1  0
  5  6  3  0
  6  7  1  0
  7  8  2  0
  7 44  1  0
  8  9  1  0
  8 13  1  0
  9 10  2  0
  9 58  1  0
 10 11  1  0
 10 59  1  0
 11 12  2  0
 11 60  1  0
 12 13  1  0
 12 61  1  0
 13 14  2  0
 14 15  1  0
 14 27  1  0
 15 16  3  0
 17 16  1  1
 17 18  1  0
 17 21  1  0
 17 24  1  0
 18 19  1  0
 18 20  1  0
 18 62  1  6
 19 63  1  0
 19 64  1  0
 19 65  1  0
 20 66  1  0
 20 67  1  0
 20 68  1  0
 21 22  1  0
 21 23  1  0
 21 69  1  6
 22 70  1  0
 22 71  1  0
 22 72  1  0
 23 73  1  0
 23 74  1  0
 23 75  1  0
 24 25  1  0
 24 26  1  0
 24 76  1  1
 25 77  1  0
 25 78  1  0
 25 79  1  0
 26 80  1  0
 26 81  1  0
 26 82  1  0
 27 28  1  0
 27 44  2  0
 28 29  2  0
 29 30  1  0
 29 42  1  0
 30 31  1  0
 30 43  2  0
 31 32  2  0
 31 83  1  0
 32 33  1  0
 32 84  1  0
 33 34  1  0
 33 42  2  0
 34 35  2  0
 34 85  1  0
 35 36  1  0
 35 40  1  0
 36 37  2  0
 36 86  1  0
 37 38  1  0
 37 87  1  0
 38 39  2  0
 38 88  1  0
 39 40  1  0
 39 89  1  0
 40 41  2  0
 41 42  1  0
 41 90  1  0
 43 44  1  0
 45 46  1  0
 45 47  1  0
 45 91  1  6
 46 92  1  0
 46 93  1  0
 46 94  1  0
 47 95  1  0
 47 96  1  0
 47 97  1  0
 48 49  1  0
 48 50  1  0
 48 98  1  6
 49 99  1  0
 49100  1  0
 49101  1  0
 50102  1  0
 50103  1  0
 50104  1  0
M  END

