
     RDKit          3D

 51 52  0  0  0  0  0  0  0  0999 V2000
    0.7209   -0.4895   -0.2641 C   0  0  0  0  0  0  0  0  0  0  0  0
    2.2408   -0.3321   -0.2004 C   0  0  0  0  0  0  0  0  0  0  0  0
    2.7765    0.8124   -1.0666 C   0  0  0  0  0  0  0  0  0  0  0  0
    4.2976    0.9790   -1.0047 C   0  0  0  0  0  0  0  0  0  0  0  0
    4.8346    2.1180   -1.8768 C   0  0  0  0  0  0  0  0  0  0  0  0
    6.3551    2.2883   -1.8071 C   0  0  0  0  0  0  0  0  0  0  0  0
    6.8966    3.4190   -2.6920 C   0  0  0  0  0  0  0  0  0  0  0  0
    8.4222    3.5879   -2.6111 C   0  0  0  0  0  0  0  0  0  0  0  0
    9.1773    4.9990   -3.6588 Si  0  0  1  0  0  4  0  0  0  0  0  0
    8.6858    4.8074   -5.4847 C   0  0  0  0  0  0  0  0  0  0  0  0
    8.4571    6.6443   -3.0521 C   0  0  0  0  0  0  0  0  0  0  0  0
   11.0597    5.0200   -3.4446 C   0  0  0  0  0  0  0  0  0  0  0  0
   11.6608    6.1813   -2.8210 C   0  0  0  0  0  0  0  0  0  0  0  0
   13.0226    6.2936   -2.6402 C   0  0  0  0  0  0  0  0  0  0  0  0
   13.8847    5.2400   -3.0674 C   0  0  0  0  0  0  0  0  0  0  0  0
   13.3618    4.0734   -3.6725 C   0  0  0  0  0  0  0  0  0  0  0  0
   14.2101    3.0168   -4.0988 C   0  0  0  0  0  0  0  0  0  0  0  0
   13.7008    1.8317   -4.7023 C   0  0  0  0  0  0  0  0  0  0  0  0
   12.3394    1.7008   -4.8821 C   0  0  0  0  0  0  0  0  0  0  0  0
   11.4653    2.7542   -4.4618 C   0  0  0  0  0  0  0  0  0  0  0  0
   11.9326    3.9500   -3.8623 C   0  0  0  0  0  0  0  0  0  0  0  0
    0.3720   -1.3216    0.3683 H   0  0  0  0  0  0  0  0  0  0  0  0
    0.3813   -0.6900   -1.2943 H   0  0  0  0  0  0  0  0  0  0  0  0
    0.2083    0.4254    0.0778 H   0  0  0  0  0  0  0  0  0  0  0  0
    2.7231   -1.2772   -0.5105 H   0  0  0  0  0  0  0  0  0  0  0  0
    2.5513   -0.1691    0.8479 H   0  0  0  0  0  0  0  0  0  0  0  0
    2.2927    1.7586   -0.7594 H   0  0  0  0  0  0  0  0  0  0  0  0
    2.4694    0.6485   -2.1167 H   0  0  0  0  0  0  0  0  0  0  0  0
    4.7809    0.0309   -1.3062 H   0  0  0  0  0  0  0  0  0  0  0  0
    4.6033    1.1482    0.0448 H   0  0  0  0  0  0  0  0  0  0  0  0
    4.3473    3.0656   -1.5799 H   0  0  0  0  0  0  0  0  0  0  0  0
    4.5342    1.9451   -2.9273 H   0  0  0  0  0  0  0  0  0  0  0  0
    6.8443    1.3390   -2.0945 H   0  0  0  0  0  0  0  0  0  0  0  0
    6.6561    2.4727   -0.7590 H   0  0  0  0  0  0  0  0  0  0  0  0
    6.3971    4.3631   -2.4073 H   0  0  0  0  0  0  0  0  0  0  0  0
    6.5936    3.2272   -3.7377 H   0  0  0  0  0  0  0  0  0  0  0  0
    8.9169    2.6393   -2.8856 H   0  0  0  0  0  0  0  0  0  0  0  0
    8.7219    3.7757   -1.5631 H   0  0  0  0  0  0  0  0  0  0  0  0
    7.5892    4.8486   -5.5951 H   0  0  0  0  0  0  0  0  0  0  0  0
    9.0346    3.8628   -5.9294 H   0  0  0  0  0  0  0  0  0  0  0  0
    9.1134    5.6312   -6.0796 H   0  0  0  0  0  0  0  0  0  0  0  0
    7.3660    6.6555   -3.2097 H   0  0  0  0  0  0  0  0  0  0  0  0
    8.8755    7.5032   -3.6017 H   0  0  0  0  0  0  0  0  0  0  0  0
    8.6374    6.8068   -1.9769 H   0  0  0  0  0  0  0  0  0  0  0  0
   11.0160    6.9959   -2.4863 H   0  0  0  0  0  0  0  0  0  0  0  0
   13.4486    7.1833   -2.1704 H   0  0  0  0  0  0  0  0  0  0  0  0
   14.9646    5.3255   -2.9217 H   0  0  0  0  0  0  0  0  0  0  0  0
   15.2890    3.1261   -3.9579 H   0  0  0  0  0  0  0  0  0  0  0  0
   14.3897    1.0439   -5.0153 H   0  0  0  0  0  0  0  0  0  0  0  0
   11.9147    0.8055   -5.3414 H   0  0  0  0  0  0  0  0  0  0  0  0
   10.3951    2.6148   -4.6146 H   0  0  0  0  0  0  0  0  0  0  0  0
  1  2  1  0
  1 22  1  0
  1 23  1  0
  1 24  1  0
  2  3  1  0
  2 25  1  0
  2 26  1  0
  3  4  1  0
  3 27  1  0
  3 28  1  0
  4  5  1  0
  4 29  1  0
  4 30  1  0
  5  6  1  0
  5 31  1  0
  5 32  1  0
  6  7  1  0
  6 33  1  0
  6 34  1  0
  7  8  1  0
  7 35  1  0
  7 36  1  0
  9  8  1  1
  8 37  1  0
  8 38  1  0
  9 10  1  0
  9 11  1  0
  9 12  1  0
 10 39  1  0
 10 40  1  0
 10 41  1  0
 11 42  1  0
 11 43  1  0
 11 44  1  0
 12 13  2  0
 12 21  1  0
 13 14  1  0
 13 45  1  0
 14 15  2  0
 14 46  1  0
 15 16  1  0
 15 47  1  0
 16 17  1  0
 16 21  2  0
 17 18  2  0
 17 48  1  0
 18 19  1  0
 18 49  1  0
 19 20  2  0
 19 50  1  0
 20 21  1  0
 20 51  1  0
M  END

