
     RDKit          3D

166168  0  0  0  0  0  0  0  0999 V2000
   12.9142   -5.2806   -5.0228 C   0  0  0  0  0  0  0  0  0  0  0  0
   11.4380   -5.0004   -4.7280 C   0  0  0  0  0  0  0  0  0  0  0  0
   10.8627   -3.7470   -5.4052 C   0  0  0  0  0  0  0  0  0  0  0  0
   11.4589   -2.4256   -4.9031 C   0  0  0  0  0  0  0  0  0  0  0  0
   10.9244   -1.1690   -5.6068 C   0  0  0  0  0  0  0  0  0  0  0  0
    9.4386   -0.8851   -5.3900 C   0  0  0  0  0  0  0  0  0  0  0  0
    9.0962   -0.7453   -4.0095 O   0  0  0  0  0  0  0  0  0  0  0  0
    9.0973    0.4346   -3.3692 C   0  0  0  0  0  0  0  0  0  0  0  0
    9.6397    1.6059   -3.8795 C   0  0  0  0  0  0  0  0  0  0  0  0
    9.6546    2.8227   -3.1501 C   0  0  0  0  0  0  0  0  0  0  0  0
   10.2101    4.0415   -3.6658 C   0  0  0  0  0  0  0  0  0  0  0  0
   10.7451    4.2303   -4.9216 C   0  0  0  0  0  0  0  0  0  0  0  0
   11.3011    5.4517   -5.4259 C   0  0  0  0  0  0  0  0  0  0  0  0
   11.3764    6.6486   -4.6724 C   0  0  0  0  0  0  0  0  0  0  0  0
   11.9199    7.8234   -5.1756 C   0  0  0  0  0  0  0  0  0  0  0  0
   11.9482    8.9766   -4.4794 O   0  0  0  0  0  0  0  0  0  0  0  0
   11.3486    9.0640   -3.1876 C   0  0  0  0  0  0  0  0  0  0  0  0
   11.3640   10.5155   -2.7363 C   0  0  0  0  0  0  0  0  0  0  0  0
   10.4991   11.4465   -3.5920 C   0  0  0  0  0  0  0  0  0  0  0  0
   10.5157   12.9027   -3.1200 C   0  0  0  0  0  0  0  0  0  0  0  0
    9.6408   13.8345   -3.9645 C   0  0  0  0  0  0  0  0  0  0  0  0
    9.6662   15.2896   -3.4952 C   0  0  0  0  0  0  0  0  0  0  0  0
   12.4724    7.8604   -6.5128 C   0  0  0  0  0  0  0  0  0  0  0  0
   13.1048    8.9918   -7.1285 C   0  0  0  0  0  0  0  0  0  0  0  0
   13.5236   10.1795   -6.5658 C   0  0  0  0  0  0  0  0  0  0  0  0
   14.1522   11.2621   -7.2719 C   0  0  0  0  0  0  0  0  0  0  0  0
   14.2330   11.3280   -8.6889 C   0  0  0  0  0  0  0  0  0  0  0  0
   14.8458   12.3822   -9.3486 C   0  0  0  0  0  0  0  0  0  0  0  0
   14.9309   12.4793  -10.6962 O   0  0  0  0  0  0  0  0  0  0  0  0
   14.3802   11.4716  -11.5316 C   0  0  0  0  0  0  0  0  0  0  0  0
   14.6342   11.8596  -12.9796 C   0  0  0  0  0  0  0  0  0  0  0  0
   14.0767   10.8400  -13.9766 C   0  0  0  0  0  0  0  0  0  0  0  0
   14.3236   11.2225  -15.4390 C   0  0  0  0  0  0  0  0  0  0  0  0
   13.7681   10.2109  -16.4461 C   0  0  0  0  0  0  0  0  0  0  0  0
   14.0176   10.6017  -17.9035 C   0  0  0  0  0  0  0  0  0  0  0  0
   15.4318   13.4646   -8.6009 C   0  0  0  0  0  0  0  0  0  0  0  0
   16.0536   14.5333   -9.3289 C   0  0  0  0  0  0  0  0  0  0  0  0
   16.6859   15.6875   -8.8882 C   0  0  0  0  0  0  0  0  0  0  0  0
   16.8566   16.0713   -7.5219 C   0  0  0  0  0  0  0  0  0  0  0  0
   16.9979   16.3884   -6.4102 N   0  0  0  0  0  0  0  0  0  0  0  0
   17.2263   16.5957   -9.8555 C   0  0  0  0  0  0  0  0  0  0  0  0
   17.6622   17.3277  -10.6478 N   0  0  0  0  0  0  0  0  0  0  0  0
   15.3512   13.4017   -7.1885 C   0  0  0  0  0  0  0  0  0  0  0  0
   14.7348   12.3435   -6.5283 C   0  0  0  0  0  0  0  0  0  0  0  0
   14.6599   12.2593   -5.1807 O   0  0  0  0  0  0  0  0  0  0  0  0
   15.3008   13.2429   -4.3702 C   0  0  0  0  0  0  0  0  0  0  0  0
   15.1331   12.8524   -2.9113 C   0  0  0  0  0  0  0  0  0  0  0  0
   15.8145   13.8363   -1.9556 C   0  0  0  0  0  0  0  0  0  0  0  0
   15.6584   13.4589   -0.4795 C   0  0  0  0  0  0  0  0  0  0  0  0
   16.3377   14.4378    0.4833 C   0  0  0  0  0  0  0  0  0  0  0  0
   16.1800   14.0553    1.9555 C   0  0  0  0  0  0  0  0  0  0  0  0
   12.3654    6.6678   -7.2758 C   0  0  0  0  0  0  0  0  0  0  0  0
   11.8118    5.4979   -6.7750 C   0  0  0  0  0  0  0  0  0  0  0  0
   11.7150    4.3508   -7.4779 O   0  0  0  0  0  0  0  0  0  0  0  0
   12.1763    4.2822   -8.8230 C   0  0  0  0  0  0  0  0  0  0  0  0
   11.9247    2.8787   -9.3497 C   0  0  0  0  0  0  0  0  0  0  0  0
   12.3663    2.7164  -10.8085 C   0  0  0  0  0  0  0  0  0  0  0  0
   12.2045    1.2977  -11.3726 C   0  0  0  0  0  0  0  0  0  0  0  0
   10.7577    0.8043  -11.4934 C   0  0  0  0  0  0  0  0  0  0  0  0
   10.6461   -0.5824  -12.1294 C   0  0  0  0  0  0  0  0  0  0  0  0
    9.0967    2.8054   -1.8256 C   0  0  0  0  0  0  0  0  0  0  0  0
    9.1317    3.9768   -1.1458 O   0  0  0  0  0  0  0  0  0  0  0  0
    8.6239    4.0564    0.1811 C   0  0  0  0  0  0  0  0  0  0  0  0
    8.7873    5.4859    0.6787 C   0  0  0  0  0  0  0  0  0  0  0  0
    8.0083    6.5514   -0.1057 C   0  0  0  0  0  0  0  0  0  0  0  0
    6.4826    6.4487   -0.0040 C   0  0  0  0  0  0  0  0  0  0  0  0
    5.7450    7.5706   -0.7429 C   0  0  0  0  0  0  0  0  0  0  0  0
    4.2224    7.4724   -0.6411 C   0  0  0  0  0  0  0  0  0  0  0  0
    8.5599    1.6316   -1.3128 C   0  0  0  0  0  0  0  0  0  0  0  0
    8.5093    0.4235   -2.0602 C   0  0  0  0  0  0  0  0  0  0  0  0
    7.8799   -0.7020   -1.4257 C   0  0  0  0  0  0  0  0  0  0  0  0
    7.4363   -1.9556   -1.8258 C   0  0  0  0  0  0  0  0  0  0  0  0
    7.4172   -2.5514   -3.1270 C   0  0  0  0  0  0  0  0  0  0  0  0
    7.3182   -3.1329   -4.1305 N   0  0  0  0  0  0  0  0  0  0  0  0
    6.8440   -2.7868   -0.8143 C   0  0  0  0  0  0  0  0  0  0  0  0
    6.3686   -3.4518    0.0134 N   0  0  0  0  0  0  0  0  0  0  0  0
   13.2439   -6.2178   -4.5463 H   0  0  0  0  0  0  0  0  0  0  0  0
   13.5738   -4.4791   -4.6520 H   0  0  0  0  0  0  0  0  0  0  0  0
   13.0930   -5.3803   -6.1073 H   0  0  0  0  0  0  0  0  0  0  0  0
   11.2884   -4.9193   -3.6358 H   0  0  0  0  0  0  0  0  0  0  0  0
   10.8390   -5.8715   -5.0448 H   0  0  0  0  0  0  0  0  0  0  0  0
    9.7717   -3.7425   -5.2458 H   0  0  0  0  0  0  0  0  0  0  0  0
   11.0158   -3.8231   -6.4992 H   0  0  0  0  0  0  0  0  0  0  0  0
   12.5548   -2.4392   -5.0287 H   0  0  0  0  0  0  0  0  0  0  0  0
   11.2785   -2.3336   -3.8175 H   0  0  0  0  0  0  0  0  0  0  0  0
   11.0769   -1.2596   -6.6982 H   0  0  0  0  0  0  0  0  0  0  0  0
   11.5158   -0.2939   -5.2870 H   0  0  0  0  0  0  0  0  0  0  0  0
    8.8207   -1.7272   -5.7338 H   0  0  0  0  0  0  0  0  0  0  0  0
    9.1184    0.0125   -5.9456 H   0  0  0  0  0  0  0  0  0  0  0  0
   10.0961    1.5906   -4.8668 H   0  0  0  0  0  0  0  0  0  0  0  0
   10.1885    4.8794   -2.9677 H   0  0  0  0  0  0  0  0  0  0  0  0
   10.7581    3.3973   -5.6251 H   0  0  0  0  0  0  0  0  0  0  0  0
   10.9829    6.6382   -3.6591 H   0  0  0  0  0  0  0  0  0  0  0  0
   11.9081    8.4236   -2.4816 H   0  0  0  0  0  0  0  0  0  0  0  0
   10.3112    8.6859   -3.2397 H   0  0  0  0  0  0  0  0  0  0  0  0
   12.4084   10.8718   -2.7218 H   0  0  0  0  0  0  0  0  0  0  0  0
   11.0156   10.5356   -1.6884 H   0  0  0  0  0  0  0  0  0  0  0  0
    9.4577   11.0733   -3.5924 H   0  0  0  0  0  0  0  0  0  0  0  0
   10.8410   11.3951   -4.6396 H   0  0  0  0  0  0  0  0  0  0  0  0
   11.5568   13.2754   -3.1291 H   0  0  0  0  0  0  0  0  0  0  0  0
   10.1885   12.9522   -2.0642 H   0  0  0  0  0  0  0  0  0  0  0  0
    8.6003   13.4613   -3.9547 H   0  0  0  0  0  0  0  0  0  0  0  0
    9.9683   13.7798   -5.0185 H   0  0  0  0  0  0  0  0  0  0  0  0
    9.3100   15.3827   -2.4554 H   0  0  0  0  0  0  0  0  0  0  0  0
    9.0259   15.9285   -4.1239 H   0  0  0  0  0  0  0  0  0  0  0  0
   10.6870   15.7056   -3.5316 H   0  0  0  0  0  0  0  0  0  0  0  0
   13.3239    8.8340   -8.1895 H   0  0  0  0  0  0  0  0  0  0  0  0
   13.4091   10.3194   -5.4944 H   0  0  0  0  0  0  0  0  0  0  0  0
   13.7749   10.5293   -9.2684 H   0  0  0  0  0  0  0  0  0  0  0  0
   13.2951   11.3750  -11.3372 H   0  0  0  0  0  0  0  0  0  0  0  0
   14.8477   10.4955  -11.3003 H   0  0  0  0  0  0  0  0  0  0  0  0
   15.7215   11.9784  -13.1258 H   0  0  0  0  0  0  0  0  0  0  0  0
   14.1857   12.8515  -13.1608 H   0  0  0  0  0  0  0  0  0  0  0  0
   12.9898   10.7182  -13.8116 H   0  0  0  0  0  0  0  0  0  0  0  0
   14.5242    9.8477  -13.7801 H   0  0  0  0  0  0  0  0  0  0  0  0
   15.4100   11.3445  -15.6048 H   0  0  0  0  0  0  0  0  0  0  0  0
   13.8783   12.2155  -15.6351 H   0  0  0  0  0  0  0  0  0  0  0  0
   12.6824   10.0896  -16.2773 H   0  0  0  0  0  0  0  0  0  0  0  0
   14.2144    9.2191  -16.2479 H   0  0  0  0  0  0  0  0  0  0  0  0
   13.5515   11.5720  -18.1433 H   0  0  0  0  0  0  0  0  0  0  0  0
   13.6054    9.8538  -18.5994 H   0  0  0  0  0  0  0  0  0  0  0  0
   15.0961   10.6943  -18.1149 H   0  0  0  0  0  0  0  0  0  0  0  0
   16.0249   14.4200  -10.4131 H   0  0  0  0  0  0  0  0  0  0  0  0
   15.7865   14.2079   -6.6074 H   0  0  0  0  0  0  0  0  0  0  0  0
   14.8592   14.2372   -4.5649 H   0  0  0  0  0  0  0  0  0  0  0  0
   16.3715   13.3032   -4.6369 H   0  0  0  0  0  0  0  0  0  0  0  0
   15.5434   11.8376   -2.7688 H   0  0  0  0  0  0  0  0  0  0  0  0
   14.0552   12.7895   -2.6818 H   0  0  0  0  0  0  0  0  0  0  0  0
   15.4066   14.8506   -2.1183 H   0  0  0  0  0  0  0  0  0  0  0  0
   16.8897   13.9042   -2.2027 H   0  0  0  0  0  0  0  0  0  0  0  0
   16.0676   12.4442   -0.3170 H   0  0  0  0  0  0  0  0  0  0  0  0
   14.5825   13.3909   -0.2315 H   0  0  0  0  0  0  0  0  0  0  0  0
   15.9281   15.4510    0.3187 H   0  0  0  0  0  0  0  0  0  0  0  0
   17.4117   14.5059    0.2321 H   0  0  0  0  0  0  0  0  0  0  0  0
   15.1172   14.0162    2.2487 H   0  0  0  0  0  0  0  0  0  0  0  0
   16.6802   14.7799    2.6175 H   0  0  0  0  0  0  0  0  0  0  0  0
   16.6145   13.0625    2.1611 H   0  0  0  0  0  0  0  0  0  0  0  0
   12.7616    6.6897   -8.2901 H   0  0  0  0  0  0  0  0  0  0  0  0
   13.2539    4.5286   -8.8586 H   0  0  0  0  0  0  0  0  0  0  0  0
   11.6421    5.0319   -9.4361 H   0  0  0  0  0  0  0  0  0  0  0  0
   10.8507    2.6563   -9.2397 H   0  0  0  0  0  0  0  0  0  0  0  0
   12.4634    2.1585   -8.7095 H   0  0  0  0  0  0  0  0  0  0  0  0
   13.4274    3.0119  -10.8963 H   0  0  0  0  0  0  0  0  0  0  0  0
   11.8022    3.4253  -11.4430 H   0  0  0  0  0  0  0  0  0  0  0  0
   12.7808    0.5898  -10.7480 H   0  0  0  0  0  0  0  0  0  0  0  0
   12.6739    1.2643  -12.3718 H   0  0  0  0  0  0  0  0  0  0  0  0
   10.1769    1.5320  -12.0898 H   0  0  0  0  0  0  0  0  0  0  0  0
   10.2821    0.7845  -10.4971 H   0  0  0  0  0  0  0  0  0  0  0  0
   11.0704   -0.5920  -13.1474 H   0  0  0  0  0  0  0  0  0  0  0  0
    9.5972   -0.9104  -12.2029 H   0  0  0  0  0  0  0  0  0  0  0  0
   11.1902   -1.3389  -11.5395 H   0  0  0  0  0  0  0  0  0  0  0  0
    9.1807    3.3586    0.8334 H   0  0  0  0  0  0  0  0  0  0  0  0
    7.5630    3.7473    0.1925 H   0  0  0  0  0  0  0  0  0  0  0  0
    9.8631    5.7303    0.6657 H   0  0  0  0  0  0  0  0  0  0  0  0
    8.4788    5.5013    1.7390 H   0  0  0  0  0  0  0  0  0  0  0  0
    8.3085    6.5095   -1.1674 H   0  0  0  0  0  0  0  0  0  0  0  0
    8.3227    7.5448    0.2605 H   0  0  0  0  0  0  0  0  0  0  0  0
    6.1855    6.4581    1.0617 H   0  0  0  0  0  0  0  0  0  0  0  0
    6.1399    5.4770   -0.4038 H   0  0  0  0  0  0  0  0  0  0  0  0
    6.0454    7.5606   -1.8065 H   0  0  0  0  0  0  0  0  0  0  0  0
    6.0799    8.5465   -0.3459 H   0  0  0  0  0  0  0  0  0  0  0  0
    3.8522    6.5241   -1.0654 H   0  0  0  0  0  0  0  0  0  0  0  0
    3.7270    8.2939   -1.1824 H   0  0  0  0  0  0  0  0  0  0  0  0
    3.8869    7.5162    0.4087 H   0  0  0  0  0  0  0  0  0  0  0  0
    8.1317    1.6211   -0.3114 H   0  0  0  0  0  0  0  0  0  0  0  0
    7.6664   -0.5171   -0.3685 H   0  0  0  0  0  0  0  0  0  0  0  0
  1  2  1  0
  1 77  1  0
  1 78  1  0
  1 79  1  0
  2  3  1  0
  2 80  1  0
  2 81  1  0
  3  4  1  0
  3 82  1  0
  3 83  1  0
  4  5  1  0
  4 84  1  0
  4 85  1  0
  5  6  1  0
  5 86  1  0
  5 87  1  0
  6  7  1  0
  6 88  1  0
  6 89  1  0
  7  8  1  0
  8  9  2  0
  8 70  1  0
  9 10  1  0
  9 90  1  0
 10 11  1  0
 10 61  2  0
 11 12  2  0
 11 91  1  0
 12 13  1  0
 12 92  1  0
 13 14  2  0
 13 53  1  0
 14 15  1  0
 14 93  1  0
 15 16  1  0
 15 23  2  0
 16 17  1  0
 17 18  1  0
 17 94  1  0
 17 95  1  0
 18 19  1  0
 18 96  1  0
 18 97  1  0
 19 20  1  0
 19 98  1  0
 19 99  1  0
 20 21  1  0
 20100  1  0
 20101  1  0
 21 22  1  0
 21102  1  0
 21103  1  0
 22104  1  0
 22105  1  0
 22106  1  0
 23 24  1  0
 23 52  1  0
 24 25  2  0
 24107  1  0
 25 26  1  0
 25108  1  0
 26 27  2  0
 26 44  1  0
 27 28  1  0
 27109  1  0
 28 29  1  0
 28 36  2  0
 29 30  1  0
 30 31  1  0
 30110  1  0
 30111  1  0
 31 32  1  0
 31112  1  0
 31113  1  0
 32 33  1  0
 32114  1  0
 32115  1  0
 33 34  1  0
 33116  1  0
 33117  1  0
 34 35  1  0
 34118  1  0
 34119  1  0
 35120  1  0
 35121  1  0
 35122  1  0
 36 37  1  0
 36 43  1  0
 37 38  2  0
 37123  1  0
 38 39  1  0
 38 41  1  0
 39 40  3  0
 41 42  3  0
 43 44  2  0
 43124  1  0
 44 45  1  0
 45 46  1  0
 46 47  1  0
 46125  1  0
 46126  1  0
 47 48  1  0
 47127  1  0
 47128  1  0
 48 49  1  0
 48129  1  0
 48130  1  0
 49 50  1  0
 49131  1  0
 49132  1  0
 50 51  1  0
 50133  1  0
 50134  1  0
 51135  1  0
 51136  1  0
 51137  1  0
 52 53  2  0
 52138  1  0
 53 54  1  0
 54 55  1  0
 55 56  1  0
 55139  1  0
 55140  1  0
 56 57  1  0
 56141  1  0
 56142  1  0
 57 58  1  0
 57143  1  0
 57144  1  0
 58 59  1  0
 58145  1  0
 58146  1  0
 59 60  1  0
 59147  1  0
 59148  1  0
 60149  1  0
 60150  1  0
 60151  1  0
 61 62  1  0
 61 69  1  0
 62 63  1  0
 63 64  1  0
 63152  1  0
 63153  1  0
 64 65  1  0
 64154  1  0
 64155  1  0
 65 66  1  0
 65156  1  0
 65157  1  0
 66 67  1  0
 66158  1  0
 66159  1  0
 67 68  1  0
 67160  1  0
 67161  1  0
 68162  1  0
 68163  1  0
 68164  1  0
 69 70  2  0
 69165  1  0
 70 71  1  0
 71 72  2  0
 71166  1  0
 72 73  1  0
 72 75  1  0
 73 74  3  0
 75 76  3  0
M  END

