
     RDKit          3D

101113  0  0  0  0  0  0  0  0999 V2000
    6.6902    1.0242    0.6334 C   0  0  0  0  0  0  0  0  0  0  0  0
    5.3181    1.2272    0.5963 C   0  0  0  0  0  0  0  0  0  0  0  0
    4.4032    0.1695    0.2940 C   0  0  0  0  0  0  0  0  0  0  0  0
    2.9703    0.3677    0.2493 C   0  0  0  0  0  0  0  0  0  0  0  0
    2.3453    1.6327    0.4863 C   0  0  0  0  0  0  0  0  0  0  0  0
    0.9653    1.7855    0.4509 C   0  0  0  0  0  0  0  0  0  0  0  0
    0.3283    3.1147    0.6843 C   0  0  0  0  0  0  0  0  0  0  0  0
    1.0084    4.2126    1.2466 C   0  0  0  0  0  0  0  0  0  0  0  0
    0.3705    5.4396    1.4300 C   0  0  0  0  0  0  0  0  0  0  0  0
   -0.9660    5.6142    1.0583 C   0  0  0  0  0  0  0  0  0  0  0  0
   -1.6632    4.5251    0.5191 C   0  0  0  0  0  0  0  0  0  0  0  0
   -3.0362    4.6778    0.1424 N   0  0  0  0  0  0  0  0  0  0  0  0
   -4.0752    5.0544    0.9916 C   0  0  0  0  0  0  0  0  0  0  0  0
   -4.0515    5.3006    2.3718 C   0  0  0  0  0  0  0  0  0  0  0  0
   -5.2494    5.6561    2.9909 C   0  0  0  0  0  0  0  0  0  0  0  0
   -6.4509    5.7661    2.2630 C   0  0  0  0  0  0  0  0  0  0  0  0
   -6.4736    5.5123    0.8928 C   0  0  0  0  0  0  0  0  0  0  0  0
   -5.2829    5.1491    0.2445 C   0  0  0  0  0  0  0  0  0  0  0  0
   -4.9483    4.8087   -1.1233 C   0  0  0  0  0  0  0  0  0  0  0  0
   -5.6864    4.7327   -2.3148 C   0  0  0  0  0  0  0  0  0  0  0  0
   -5.0379    4.3727   -3.4969 C   0  0  0  0  0  0  0  0  0  0  0  0
   -3.6551    4.0965   -3.4979 C   0  0  0  0  0  0  0  0  0  0  0  0
   -2.8961    4.1690   -2.3290 C   0  0  0  0  0  0  0  0  0  0  0  0
   -3.5522    4.5226   -1.1408 C   0  0  0  0  0  0  0  0  0  0  0  0
   -1.0265    3.2936    0.3438 C   0  0  0  0  0  0  0  0  0  0  0  0
    0.1142    0.7608    0.1735 N   0  0  0  0  0  0  0  0  0  0  0  0
    0.6815   -0.4473   -0.0746 C   0  0  0  0  0  0  0  0  0  0  0  0
   -0.2865   -1.5453   -0.3724 C   0  0  0  0  0  0  0  0  0  0  0  0
    0.0622   -2.7598   -0.9927 C   0  0  0  0  0  0  0  0  0  0  0  0
   -0.8907   -3.7443   -1.2647 C   0  0  0  0  0  0  0  0  0  0  0  0
   -2.2336   -3.5515   -0.9302 C   0  0  0  0  0  0  0  0  0  0  0  0
   -2.5827   -2.3430   -0.3147 C   0  0  0  0  0  0  0  0  0  0  0  0
   -3.9610   -2.1047    0.0383 N   0  0  0  0  0  0  0  0  0  0  0  0
   -4.7252   -1.0511   -0.4051 C   0  0  0  0  0  0  0  0  0  0  0  0
   -4.3671   -0.0167   -1.2964 C   0  0  0  0  0  0  0  0  0  0  0  0
   -5.3295    0.9476   -1.5798 C   0  0  0  0  0  0  0  0  0  0  0  0
   -6.6104    0.8754   -1.0039 C   0  0  0  0  0  0  0  0  0  0  0  0
   -6.9734   -0.1722   -0.1278 C   0  0  0  0  0  0  0  0  0  0  0  0
   -6.0299   -1.1397    0.1751 C   0  0  0  0  0  0  0  0  0  0  0  0
   -6.0220   -2.3350    1.0160 C   0  0  0  0  0  0  0  0  0  0  0  0
   -6.9558   -2.9462    1.8411 C   0  0  0  0  0  0  0  0  0  0  0  0
   -6.5778   -4.1076    2.5478 C   0  0  0  0  0  0  0  0  0  0  0  0
   -5.2860   -4.6371    2.4373 C   0  0  0  0  0  0  0  0  0  0  0  0
   -4.3282   -4.0345    1.6141 C   0  0  0  0  0  0  0  0  0  0  0  0
   -4.7182   -2.8928    0.9017 C   0  0  0  0  0  0  0  0  0  0  0  0
   -1.6399   -1.3532   -0.0385 C   0  0  0  0  0  0  0  0  0  0  0  0
    2.0445   -0.6862   -0.0404 C   0  0  0  0  0  0  0  0  0  0  0  0
    4.9990   -1.1059    0.0472 C   0  0  0  0  0  0  0  0  0  0  0  0
    6.3759   -1.2960    0.0788 C   0  0  0  0  0  0  0  0  0  0  0  0
    6.9076   -2.5999   -0.1909 N   0  0  0  0  0  0  0  0  0  0  0  0
    7.5713   -3.4106    0.7244 C   0  0  0  0  0  0  0  0  0  0  0  0
    7.8540   -3.1746    2.0772 C   0  0  0  0  0  0  0  0  0  0  0  0
    8.5301   -4.1689    2.7837 C   0  0  0  0  0  0  0  0  0  0  0  0
    8.9186   -5.3753    2.1675 C   0  0  0  0  0  0  0  0  0  0  0  0
    8.6308   -5.6091    0.8236 C   0  0  0  0  0  0  0  0  0  0  0  0
    7.9510   -4.6265    0.0880 C   0  0  0  0  0  0  0  0  0  0  0  0
    7.4898   -4.5344   -1.2826 C   0  0  0  0  0  0  0  0  0  0  0  0
    7.5626   -5.3871   -2.3944 C   0  0  0  0  0  0  0  0  0  0  0  0
    7.0121   -4.9737   -3.6068 C   0  0  0  0  0  0  0  0  0  0  0  0
    6.3914   -3.7135   -3.7183 C   0  0  0  0  0  0  0  0  0  0  0  0
    6.3025   -2.8463   -2.6296 C   0  0  0  0  0  0  0  0  0  0  0  0
    6.8521   -3.2673   -1.4104 C   0  0  0  0  0  0  0  0  0  0  0  0
    7.2536   -0.2352    0.3695 C   0  0  0  0  0  0  0  0  0  0  0  0
    7.3474    1.8670    0.8659 H   0  0  0  0  0  0  0  0  0  0  0  0
    4.9393    2.2277    0.8082 H   0  0  0  0  0  0  0  0  0  0  0  0
    2.9657    2.5050    0.6816 H   0  0  0  0  0  0  0  0  0  0  0  0
    2.0477    4.1077    1.5612 H   0  0  0  0  0  0  0  0  0  0  0  0
    0.9234    6.2759    1.8655 H   0  0  0  0  0  0  0  0  0  0  0  0
   -1.4637    6.5780    1.1810 H   0  0  0  0  0  0  0  0  0  0  0  0
   -3.1250    5.2176    2.9416 H   0  0  0  0  0  0  0  0  0  0  0  0
   -5.2533    5.8555    4.0658 H   0  0  0  0  0  0  0  0  0  0  0  0
   -7.3698    6.0546    2.7791 H   0  0  0  0  0  0  0  0  0  0  0  0
   -7.4064    5.5985    0.3289 H   0  0  0  0  0  0  0  0  0  0  0  0
   -6.7549    4.9658   -2.3183 H   0  0  0  0  0  0  0  0  0  0  0  0
   -5.5997    4.3188   -4.4327 H   0  0  0  0  0  0  0  0  0  0  0  0
   -3.1615    3.8300   -4.4362 H   0  0  0  0  0  0  0  0  0  0  0  0
   -1.8249    3.9634   -2.3391 H   0  0  0  0  0  0  0  0  0  0  0  0
   -1.5639    2.4400   -0.0662 H   0  0  0  0  0  0  0  0  0  0  0  0
    1.0966   -2.9350   -1.2907 H   0  0  0  0  0  0  0  0  0  0  0  0
   -0.5869   -4.6684   -1.7620 H   0  0  0  0  0  0  0  0  0  0  0  0
   -2.9902   -4.3006   -1.1703 H   0  0  0  0  0  0  0  0  0  0  0  0
   -3.3699    0.0296   -1.7317 H   0  0  0  0  0  0  0  0  0  0  0  0
   -5.0867    1.7764   -2.2465 H   0  0  0  0  0  0  0  0  0  0  0  0
   -7.3400    1.6522   -1.2381 H   0  0  0  0  0  0  0  0  0  0  0  0
   -7.9770   -0.2059    0.3003 H   0  0  0  0  0  0  0  0  0  0  0  0
   -7.9628   -2.5391    1.9525 H   0  0  0  0  0  0  0  0  0  0  0  0
   -7.3051   -4.5958    3.1994 H   0  0  0  0  0  0  0  0  0  0  0  0
   -5.0170   -5.5290    3.0057 H   0  0  0  0  0  0  0  0  0  0  0  0
   -3.3164   -4.4305    1.5335 H   0  0  0  0  0  0  0  0  0  0  0  0
   -1.9089   -0.4165    0.4503 H   0  0  0  0  0  0  0  0  0  0  0  0
    2.4139   -1.6946   -0.2180 H   0  0  0  0  0  0  0  0  0  0  0  0
    4.3784   -1.9749   -0.1696 H   0  0  0  0  0  0  0  0  0  0  0  0
    7.5552   -2.2407    2.5557 H   0  0  0  0  0  0  0  0  0  0  0  0
    8.7631   -4.0068    3.8397 H   0  0  0  0  0  0  0  0  0  0  0  0
    9.4490   -6.1323    2.7506 H   0  0  0  0  0  0  0  0  0  0  0  0
    8.9299   -6.5471    0.3480 H   0  0  0  0  0  0  0  0  0  0  0  0
    8.0488   -6.3629   -2.3108 H   0  0  0  0  0  0  0  0  0  0  0  0
    7.0644   -5.6288   -4.4801 H   0  0  0  0  0  0  0  0  0  0  0  0
    5.9716   -3.4053   -4.6798 H   0  0  0  0  0  0  0  0  0  0  0  0
    5.8225   -1.8704   -2.7183 H   0  0  0  0  0  0  0  0  0  0  0  0
    8.3321   -0.3954    0.3768 H   0  0  0  0  0  0  0  0  0  0  0  0
  1  2  2  0
  1 63  1  0
  1 64  1  0
  2  3  1  0
  2 65  1  0
  3  4  1  0
  3 48  2  0
  4  5  2  0
  4 47  1  0
  5  6  1  0
  5 66  1  0
  6  7  1  0
  6 26  2  0
  7  8  2  0
  7 25  1  0
  8  9  1  0
  8 67  1  0
  9 10  2  0
  9 68  1  0
 10 11  1  0
 10 69  1  0
 11 12  1  0
 11 25  2  0
 12 13  1  0
 12 24  1  0
 13 14  2  0
 13 18  1  0
 14 15  1  0
 14 70  1  0
 15 16  2  0
 15 71  1  0
 16 17  1  0
 16 72  1  0
 17 18  2  0
 17 73  1  0
 18 19  1  0
 19 20  1  0
 19 24  2  0
 20 21  2  0
 20 74  1  0
 21 22  1  0
 21 75  1  0
 22 23  2  0
 22 76  1  0
 23 24  1  0
 23 77  1  0
 25 78  1  0
 26 27  1  0
 27 28  1  0
 27 47  2  0
 28 29  2  0
 28 46  1  0
 29 30  1  0
 29 79  1  0
 30 31  2  0
 30 80  1  0
 31 32  1  0
 31 81  1  0
 32 33  1  0
 32 46  2  0
 33 34  1  0
 33 45  1  0
 34 35  2  0
 34 39  1  0
 35 36  1  0
 35 82  1  0
 36 37  2  0
 36 83  1  0
 37 38  1  0
 37 84  1  0
 38 39  2  0
 38 85  1  0
 39 40  1  0
 40 41  1  0
 40 45  2  0
 41 42  2  0
 41 86  1  0
 42 43  1  0
 42 87  1  0
 43 44  2  0
 43 88  1  0
 44 45  1  0
 44 89  1  0
 46 90  1  0
 47 91  1  0
 48 49  1  0
 48 92  1  0
 49 50  1  0
 49 63  2  0
 50 51  1  0
 50 62  1  0
 51 52  2  0
 51 56  1  0
 52 53  1  0
 52 93  1  0
 53 54  2  0
 53 94  1  0
 54 55  1  0
 54 95  1  0
 55 56  2  0
 55 96  1  0
 56 57  1  0
 57 58  1  0
 57 62  2  0
 58 59  2  0
 58 97  1  0
 59 60  1  0
 59 98  1  0
 60 61  2  0
 60 99  1  0
 61 62  1  0
 61100  1  0
 63101  1  0
M  END

