
     RDKit          3D

 48 53  0  0  0  0  0  0  0  0999 V2000
    3.5032   -1.5306    1.8399 O   0  0  0  0  0  0  0  0  0  0  0  0
    3.5850   -0.9264    0.6327 C   0  0  0  0  0  0  0  0  0  0  0  0
    4.2455    0.2972    0.4641 C   0  0  0  0  0  0  0  0  0  0  0  0
    4.2177    0.9556   -0.7657 C   0  0  0  0  0  0  0  0  0  0  0  0
    3.5102    0.4025   -1.8423 C   0  0  0  0  0  0  0  0  0  0  0  0
    2.8624   -0.8167   -1.6831 C   0  0  0  0  0  0  0  0  0  0  0  0
    2.9178   -1.5318   -0.4635 C   0  0  0  0  0  0  0  0  0  0  0  0
    2.2038   -2.8046   -0.3949 C   0  0  0  0  0  0  0  0  0  0  0  0
    1.0253   -2.9830   -0.9704 N   0  0  0  0  0  0  0  0  0  0  0  0
    0.6795   -4.2730   -0.7611 C   0  0  0  0  0  0  0  0  0  0  0  0
   -0.5374   -4.9141   -1.1575 C   0  0  0  0  0  0  0  0  0  0  0  0
   -1.5539   -4.2182   -1.8226 C   0  0  0  0  0  0  0  0  0  0  0  0
   -2.7446   -4.8681   -2.1935 C   0  0  0  0  0  0  0  0  0  0  0  0
   -2.8844   -6.2290   -1.8779 C   0  0  0  0  0  0  0  0  0  0  0  0
   -1.8800   -6.9404   -1.2166 C   0  0  0  0  0  0  0  0  0  0  0  0
   -0.6554   -6.3182   -0.8249 C   0  0  0  0  0  0  0  0  0  0  0  0
    0.4142   -7.0228   -0.1638 C   0  0  0  0  0  0  0  0  0  0  0  0
    0.3165   -8.4178    0.1432 C   0  0  0  0  0  0  0  0  0  0  0  0
    1.3631   -9.1234    0.7289 C   0  0  0  0  0  0  0  0  0  0  0  0
    2.5793   -8.4957    1.0537 C   0  0  0  0  0  0  0  0  0  0  0  0
    2.7124   -7.1195    0.7988 C   0  0  0  0  0  0  0  0  0  0  0  0
    1.6688   -6.3707    0.2235 C   0  0  0  0  0  0  0  0  0  0  0  0
    1.7221   -4.9654   -0.0510 C   0  0  0  0  0  0  0  0  0  0  0  0
    2.6797   -3.9967    0.1906 N   0  0  0  0  0  0  0  0  0  0  0  0
    3.9879   -4.1906    0.7471 C   0  0  0  0  0  0  0  0  0  0  0  0
    5.1036   -4.1664   -0.0945 C   0  0  0  0  0  0  0  0  0  0  0  0
    6.3816   -4.3576    0.4428 C   0  0  0  0  0  0  0  0  0  0  0  0
    6.5392   -4.5806    1.8126 C   0  0  0  0  0  0  0  0  0  0  0  0
    5.4171   -4.6045    2.6506 C   0  0  0  0  0  0  0  0  0  0  0  0
    4.1416   -4.4033    2.1230 C   0  0  0  0  0  0  0  0  0  0  0  0
    4.0293   -1.0457    2.4901 H   0  0  0  0  0  0  0  0  0  0  0  0
    4.7594    0.7461    1.3200 H   0  0  0  0  0  0  0  0  0  0  0  0
    4.7359    1.9111   -0.8769 H   0  0  0  0  0  0  0  0  0  0  0  0
    3.4697    0.9224   -2.8017 H   0  0  0  0  0  0  0  0  0  0  0  0
    2.3037   -1.2629   -2.5072 H   0  0  0  0  0  0  0  0  0  0  0  0
   -1.3973   -3.1595   -2.0389 H   0  0  0  0  0  0  0  0  0  0  0  0
   -3.5396   -4.3279   -2.7105 H   0  0  0  0  0  0  0  0  0  0  0  0
   -3.8029   -6.7551   -2.1549 H   0  0  0  0  0  0  0  0  0  0  0  0
   -2.0500   -7.9957   -1.0055 H   0  0  0  0  0  0  0  0  0  0  0  0
   -0.6006   -8.9560   -0.0927 H   0  0  0  0  0  0  0  0  0  0  0  0
    1.2325  -10.1903    0.9330 H   0  0  0  0  0  0  0  0  0  0  0  0
    3.4027   -9.0572    1.4975 H   0  0  0  0  0  0  0  0  0  0  0  0
    3.6517   -6.6332    1.0482 H   0  0  0  0  0  0  0  0  0  0  0  0
    4.9680   -4.0065   -1.1658 H   0  0  0  0  0  0  0  0  0  0  0  0
    7.2528   -4.3406   -0.2163 H   0  0  0  0  0  0  0  0  0  0  0  0
    7.5367   -4.7381    2.2302 H   0  0  0  0  0  0  0  0  0  0  0  0
    5.5376   -4.7791    3.7226 H   0  0  0  0  0  0  0  0  0  0  0  0
    3.2598   -4.4097    2.7652 H   0  0  0  0  0  0  0  0  0  0  0  0
  1  2  1  0
  1 31  1  0
  2  3  2  0
  2  7  1  0
  3  4  1  0
  3 32  1  0
  4  5  2  0
  4 33  1  0
  5  6  1  0
  5 34  1  0
  6  7  2  0
  6 35  1  0
  7  8  1  0
  8  9  2  0
  8 24  1  0
  9 10  1  0
 10 11  2  0
 10 23  1  0
 11 12  1  0
 11 16  1  0
 12 13  2  0
 12 36  1  0
 13 14  1  0
 13 37  1  0
 14 15  2  0
 14 38  1  0
 15 16  1  0
 15 39  1  0
 16 17  2  0
 17 18  1  0
 17 22  1  0
 18 19  2  0
 18 40  1  0
 19 20  1  0
 19 41  1  0
 20 21  2  0
 20 42  1  0
 21 22  1  0
 21 43  1  0
 22 23  2  0
 23 24  1  0
 24 25  1  0
 25 26  2  0
 25 30  1  0
 26 27  1  0
 26 44  1  0
 27 28  2  0
 27 45  1  0
 28 29  1  0
 28 46  1  0
 29 30  2  0
 29 47  1  0
 30 48  1  0
M  END

