
     RDKit          3D

 39 41  0  0  0  0  0  0  0  0999 V2000
    3.2435    1.1313   -0.7138 C   0  0  0  0  0  0  0  0  0  0  0  0
    2.6919   -0.1650   -0.8106 O   0  0  0  0  0  0  0  0  0  0  0  0
    3.3395   -1.2050   -0.2239 C   0  0  0  0  0  0  0  0  0  0  0  0
    4.5156   -1.0705    0.5107 C   0  0  0  0  0  0  0  0  0  0  0  0
    5.1402   -2.2177    1.0376 C   0  0  0  0  0  0  0  0  0  0  0  0
    6.3754   -2.0505    1.7958 C   0  0  0  0  0  0  0  0  0  0  0  0
    6.9966   -0.9368    2.0856 N   0  0  0  0  0  0  0  0  0  0  0  0
    8.0984   -1.3177    2.8070 C   0  0  0  0  0  0  0  0  0  0  0  0
    8.1161   -2.6857    2.9387 C   0  0  0  0  0  0  0  0  0  0  0  0
    9.0056   -3.6435    3.5748 C   0  0  0  0  0  0  0  0  0  0  0  0
   10.1510   -3.2224    4.2772 C   0  0  0  0  0  0  0  0  0  0  0  0
   10.9731   -4.1809    4.8682 C   0  0  0  0  0  0  0  0  0  0  0  0
   10.7437   -5.4970    4.8119 N   0  0  0  0  0  0  0  0  0  0  0  0
    9.6576   -5.8971    4.1456 C   0  0  0  0  0  0  0  0  0  0  0  0
    8.7644   -5.0281    3.5161 C   0  0  0  0  0  0  0  0  0  0  0  0
    7.0042   -3.1491    2.2852 O   0  0  0  0  0  0  0  0  0  0  0  0
    4.5802   -3.4791    0.8311 C   0  0  0  0  0  0  0  0  0  0  0  0
    3.3874   -3.6237    0.1031 C   0  0  0  0  0  0  0  0  0  0  0  0
    2.9739   -4.9037   -0.0646 O   0  0  0  0  0  0  0  0  0  0  0  0
    1.6153   -5.2530   -0.2683 C   0  0  0  0  0  0  0  0  0  0  0  0
    2.7528   -2.4838   -0.4350 C   0  0  0  0  0  0  0  0  0  0  0  0
    1.6504   -2.6277   -1.2267 O   0  0  0  0  0  0  0  0  0  0  0  0
    0.4334   -2.0204   -0.8099 C   0  0  0  0  0  0  0  0  0  0  0  0
    2.5747    1.7962   -1.2765 H   0  0  0  0  0  0  0  0  0  0  0  0
    4.2539    1.1774   -1.1562 H   0  0  0  0  0  0  0  0  0  0  0  0
    3.2982    1.4782    0.3333 H   0  0  0  0  0  0  0  0  0  0  0  0
    4.9815   -0.1019    0.6798 H   0  0  0  0  0  0  0  0  0  0  0  0
    8.8160   -0.5939    3.1895 H   0  0  0  0  0  0  0  0  0  0  0  0
   10.4011   -2.1631    4.3653 H   0  0  0  0  0  0  0  0  0  0  0  0
   11.8671   -3.8634    5.4181 H   0  0  0  0  0  0  0  0  0  0  0  0
    9.4798   -6.9785    4.1052 H   0  0  0  0  0  0  0  0  0  0  0  0
    7.8941   -5.4175    2.9861 H   0  0  0  0  0  0  0  0  0  0  0  0
    5.0447   -4.3805    1.2296 H   0  0  0  0  0  0  0  0  0  0  0  0
    1.5533   -6.3343   -0.0785 H   0  0  0  0  0  0  0  0  0  0  0  0
    1.2810   -5.0398   -1.2934 H   0  0  0  0  0  0  0  0  0  0  0  0
    0.9501   -4.7325    0.4428 H   0  0  0  0  0  0  0  0  0  0  0  0
   -0.3347   -2.3374   -1.5294 H   0  0  0  0  0  0  0  0  0  0  0  0
    0.5047   -0.9234   -0.8113 H   0  0  0  0  0  0  0  0  0  0  0  0
    0.1415   -2.3640    0.1996 H   0  0  0  0  0  0  0  0  0  0  0  0
  1  2  1  0
  1 24  1  0
  1 25  1  0
  1 26  1  0
  2  3  1  0
  3  4  2  0
  3 21  1  0
  4  5  1  0
  4 27  1  0
  5  6  1  0
  5 17  2  0
  6  7  2  0
  6 16  1  0
  7  8  1  0
  8  9  2  0
  8 28  1  0
  9 10  1  0
  9 16  1  0
 10 11  2  0
 10 15  1  0
 11 12  1  0
 11 29  1  0
 12 13  2  0
 12 30  1  0
 13 14  1  0
 14 15  2  0
 14 31  1  0
 15 32  1  0
 17 18  1  0
 17 33  1  0
 18 19  1  0
 18 21  2  0
 19 20  1  0
 20 34  1  0
 20 35  1  0
 20 36  1  0
 21 22  1  0
 22 23  1  0
 23 37  1  0
 23 38  1  0
 23 39  1  0
M  END

