
     RDKit          3D

 24 24  0  0  0  0  0  0  0  0999 V2000
    3.0864    1.2231   -0.1558 C   0  0  0  0  0  0  0  0  0  0  0  0
    2.8198   -0.1689   -0.1474 O   0  0  0  0  0  0  0  0  0  0  0  0
    3.3727   -0.9479    0.8250 C   0  0  0  0  0  0  0  0  0  0  0  0
    4.1924   -0.5054    1.8539 C   0  0  0  0  0  0  0  0  0  0  0  0
    4.7603   -1.4162    2.8249 C   0  0  0  0  0  0  0  0  0  0  0  0
    5.6487   -0.8436    3.8300 C   0  0  0  0  0  0  0  0  0  0  0  0
    5.8249    0.3666    3.9635 O   0  0  0  0  0  0  0  0  0  0  0  0
    6.2843   -1.7308    4.6756 O   0  0  0  0  0  0  0  0  0  0  0  0
    4.3524   -2.7651    2.7522 C   0  0  0  0  0  0  0  0  0  0  0  0
    3.5104   -3.2149    1.6751 C   0  0  0  0  0  0  0  0  0  0  0  0
    3.2507   -4.5298    1.7218 O   0  0  0  0  0  0  0  0  0  0  0  0
    2.4558   -5.2165    0.7623 C   0  0  0  0  0  0  0  0  0  0  0  0
    3.0188   -2.3210    0.6907 C   0  0  0  0  0  0  0  0  0  0  0  0
    2.2393   -2.7144   -0.3554 O   0  0  0  0  0  0  0  0  0  0  0  0
    2.5518    1.6387   -1.0196 H   0  0  0  0  0  0  0  0  0  0  0  0
    4.1664    1.4216   -0.2622 H   0  0  0  0  0  0  0  0  0  0  0  0
    2.7217    1.7043    0.7673 H   0  0  0  0  0  0  0  0  0  0  0  0
    4.4475    0.5467    1.9859 H   0  0  0  0  0  0  0  0  0  0  0  0
    6.3324   -2.5997    4.2541 H   0  0  0  0  0  0  0  0  0  0  0  0
    4.5998   -3.5042    3.5144 H   0  0  0  0  0  0  0  0  0  0  0  0
    2.4425   -6.2651    1.0834 H   0  0  0  0  0  0  0  0  0  0  0  0
    2.8925   -5.1230   -0.2431 H   0  0  0  0  0  0  0  0  0  0  0  0
    1.4362   -4.8045    0.7359 H   0  0  0  0  0  0  0  0  0  0  0  0
    2.0519   -1.9071   -0.8658 H   0  0  0  0  0  0  0  0  0  0  0  0
  1  2  1  0
  1 15  1  0
  1 16  1  0
  1 17  1  0
  2  3  1  0
  3  4  2  0
  3 13  1  0
  4  5  1  0
  4 18  1  0
  5  6  1  0
  5  9  2  0
  6  7  2  0
  6  8  1  0
  8 19  1  0
  9 10  1  0
  9 20  1  0
 10 11  1  0
 10 13  2  0
 11 12  1  0
 12 21  1  0
 12 22  1  0
 12 23  1  0
 13 14  1  0
 14 24  1  0
M  END

