
     RDKit          3D

 68 74  0  0  0  0  0  0  0  0999 V2000
    7.2300   -0.8547    3.6531 C   0  0  0  0  0  0  0  0  0  0  0  0
    6.1196   -0.6607    2.6586 C   0  0  0  0  0  0  0  0  0  0  0  0
    4.7734   -0.6823    3.0901 C   0  0  0  0  0  0  0  0  0  0  0  0
    3.7123   -0.5085    2.2076 C   0  0  0  0  0  0  0  0  0  0  0  0
    4.0221   -0.3057    0.8515 C   0  0  0  0  0  0  0  0  0  0  0  0
    5.3687   -0.2802    0.3836 C   0  0  0  0  0  0  0  0  0  0  0  0
    6.4074   -0.4567    1.2836 C   0  0  0  0  0  0  0  0  0  0  0  0
    5.2844   -0.0565   -1.0608 C   0  0  0  0  0  0  0  0  0  0  0  0
    6.2102    0.0653   -2.0842 C   0  0  0  0  0  0  0  0  0  0  0  0
    5.7638    0.2796   -3.4148 C   0  0  0  0  0  0  0  0  0  0  0  0
    6.7502    0.4192   -4.5402 C   0  0  0  0  0  0  0  0  0  0  0  0
    4.3766    0.3642   -3.6769 C   0  0  0  0  0  0  0  0  0  0  0  0
    3.4265    0.2455   -2.6686 C   0  0  0  0  0  0  0  0  0  0  0  0
    3.8924    0.0364   -1.3583 C   0  0  0  0  0  0  0  0  0  0  0  0
    3.1585   -0.1121   -0.2040 N   0  0  0  0  0  0  0  0  0  0  0  0
    1.7113   -0.0866   -0.1154 C   0  0  0  0  0  0  0  0  0  0  0  0
    1.0022   -1.2976   -0.2587 C   0  0  0  0  0  0  0  0  0  0  0  0
   -0.3777   -1.3106   -0.1784 C   0  0  0  0  0  0  0  0  0  0  0  0
   -1.1088   -0.1071    0.0499 C   0  0  0  0  0  0  0  0  0  0  0  0
   -2.5495   -0.1060    0.1352 C   0  0  0  0  0  0  0  0  0  0  0  0
   -3.1992    1.0762    0.3600 N   0  0  0  0  0  0  0  0  0  0  0  0
   -4.5174    1.0197    0.4305 C   0  0  0  0  0  0  0  0  0  0  0  0
   -5.2593    2.2929    0.6754 C   0  0  0  0  0  0  0  0  0  0  0  0
   -4.5723    3.5098    0.8286 C   0  0  0  0  0  0  0  0  0  0  0  0
   -5.2694    4.6965    1.0573 C   0  0  0  0  0  0  0  0  0  0  0  0
   -6.6674    4.6892    1.1373 C   0  0  0  0  0  0  0  0  0  0  0  0
   -7.3594    3.4838    0.9861 C   0  0  0  0  0  0  0  0  0  0  0  0
   -6.6621    2.2951    0.7571 C   0  0  0  0  0  0  0  0  0  0  0  0
   -5.2562   -0.1068    0.2971 N   0  0  0  0  0  0  0  0  0  0  0  0
   -4.5378   -1.2328    0.0746 C   0  0  0  0  0  0  0  0  0  0  0  0
   -5.3025   -2.5061   -0.0842 C   0  0  0  0  0  0  0  0  0  0  0  0
   -6.7047   -2.5112    0.0079 C   0  0  0  0  0  0  0  0  0  0  0  0
   -7.4228   -3.7003   -0.1406 C   0  0  0  0  0  0  0  0  0  0  0  0
   -6.7526   -4.9029   -0.3840 C   0  0  0  0  0  0  0  0  0  0  0  0
   -5.3553   -4.9072   -0.4776 C   0  0  0  0  0  0  0  0  0  0  0  0
   -4.6375   -3.7203   -0.3290 C   0  0  0  0  0  0  0  0  0  0  0  0
   -3.2207   -1.2881   -0.0125 N   0  0  0  0  0  0  0  0  0  0  0  0
   -0.3567    1.0977    0.1905 C   0  0  0  0  0  0  0  0  0  0  0  0
    1.0295    1.1370    0.1134 C   0  0  0  0  0  0  0  0  0  0  0  0
    1.7762    2.4424    0.2672 C   0  0  0  0  0  0  0  0  0  0  0  0
    7.1886   -0.0856    4.4424 H   0  0  0  0  0  0  0  0  0  0  0  0
    7.1378   -1.8306    4.1585 H   0  0  0  0  0  0  0  0  0  0  0  0
    8.2205   -0.8069    3.1800 H   0  0  0  0  0  0  0  0  0  0  0  0
    4.5621   -0.8417    4.1500 H   0  0  0  0  0  0  0  0  0  0  0  0
    2.6743   -0.5276    2.5397 H   0  0  0  0  0  0  0  0  0  0  0  0
    7.4474   -0.4421    0.9492 H   0  0  0  0  0  0  0  0  0  0  0  0
    7.2819   -0.0019   -1.8822 H   0  0  0  0  0  0  0  0  0  0  0  0
    6.6599    1.4089   -5.0191 H   0  0  0  0  0  0  0  0  0  0  0  0
    7.7871    0.2995   -4.1973 H   0  0  0  0  0  0  0  0  0  0  0  0
    6.5585   -0.3298   -5.3264 H   0  0  0  0  0  0  0  0  0  0  0  0
    4.0434    0.5268   -4.7045 H   0  0  0  0  0  0  0  0  0  0  0  0
    2.3571    0.3083   -2.8702 H   0  0  0  0  0  0  0  0  0  0  0  0
    1.5509   -2.2273   -0.4334 H   0  0  0  0  0  0  0  0  0  0  0  0
   -0.9325   -2.2420   -0.2884 H   0  0  0  0  0  0  0  0  0  0  0  0
   -3.4836    3.4992    0.7642 H   0  0  0  0  0  0  0  0  0  0  0  0
   -4.7206    5.6353    1.1745 H   0  0  0  0  0  0  0  0  0  0  0  0
   -7.2136    5.6196    1.3164 H   0  0  0  0  0  0  0  0  0  0  0  0
   -8.4513    3.4692    1.0469 H   0  0  0  0  0  0  0  0  0  0  0  0
   -7.1865    1.3469    0.6366 H   0  0  0  0  0  0  0  0  0  0  0  0
   -7.2119   -1.5650    0.1976 H   0  0  0  0  0  0  0  0  0  0  0  0
   -8.5139   -3.6882   -0.0662 H   0  0  0  0  0  0  0  0  0  0  0  0
   -7.3151   -5.8335   -0.5007 H   0  0  0  0  0  0  0  0  0  0  0  0
   -4.8237   -5.8439   -0.6681 H   0  0  0  0  0  0  0  0  0  0  0  0
   -3.5492   -3.7070   -0.3991 H   0  0  0  0  0  0  0  0  0  0  0  0
   -0.9121    2.0200    0.3644 H   0  0  0  0  0  0  0  0  0  0  0  0
    2.4810    2.4249    1.1166 H   0  0  0  0  0  0  0  0  0  0  0  0
    1.0731    3.2682    0.4421 H   0  0  0  0  0  0  0  0  0  0  0  0
    2.3649    2.6965   -0.6315 H   0  0  0  0  0  0  0  0  0  0  0  0
  1  2  1  0
  1 41  1  0
  1 42  1  0
  1 43  1  0
  2  3  2  0
  2  7  1  0
  3  4  1  0
  3 44  1  0
  4  5  2  0
  4 45  1  0
  5  6  1  0
  5 15  1  0
  6  7  2  0
  6  8  1  0
  7 46  1  0
  8  9  2  0
  8 14  1  0
  9 10  1  0
  9 47  1  0
 10 11  1  0
 10 12  2  0
 11 48  1  0
 11 49  1  0
 11 50  1  0
 12 13  1  0
 12 51  1  0
 13 14  2  0
 13 52  1  0
 14 15  1  0
 15 16  1  0
 16 17  2  0
 16 39  1  0
 17 18  1  0
 17 53  1  0
 18 19  2  0
 18 54  1  0
 19 20  1  0
 19 38  1  0
 20 21  2  0
 20 37  1  0
 21 22  1  0
 22 23  1  0
 22 29  2  0
 23 24  2  0
 23 28  1  0
 24 25  1  0
 24 55  1  0
 25 26  2  0
 25 56  1  0
 26 27  1  0
 26 57  1  0
 27 28  2  0
 27 58  1  0
 28 59  1  0
 29 30  1  0
 30 31  1  0
 30 37  2  0
 31 32  2  0
 31 36  1  0
 32 33  1  0
 32 60  1  0
 33 34  2  0
 33 61  1  0
 34 35  1  0
 34 62  1  0
 35 36  2  0
 35 63  1  0
 36 64  1  0
 38 39  2  0
 38 65  1  0
 39 40  1  0
 40 66  1  0
 40 67  1  0
 40 68  1  0
M  END

