
     RDKit          3D

 44 46  0  0  0  0  0  0  0  0999 V2000
    2.1987    1.1754    1.6148 C   0  0  0  0  0  0  0  0  0  0  0  0
    2.4166    0.2697    0.3967 C   0  0  0  0  0  0  0  0  0  0  0  0
    3.0351   -1.0208    0.6801 N   0  0  0  0  0  0  0  0  0  0  0  0
    2.1593   -2.1777    0.8473 C   0  0  0  0  0  0  0  0  0  0  0  0
    1.7743   -2.5065    2.2942 C   0  0  0  0  0  0  0  0  0  0  0  0
    4.4031   -1.1404    0.8457 C   0  0  0  0  0  0  0  0  0  0  0  0
    5.2780   -0.0234    0.6842 C   0  0  0  0  0  0  0  0  0  0  0  0
    6.6525   -0.1463    0.8042 C   0  0  0  0  0  0  0  0  0  0  0  0
    7.2586   -1.3834    1.1049 C   0  0  0  0  0  0  0  0  0  0  0  0
    8.6772   -1.5712    1.2428 C   0  0  0  0  0  0  0  0  0  0  0  0
    9.1834   -2.7971    1.5413 C   0  0  0  0  0  0  0  0  0  0  0  0
   10.6020   -3.1540    1.7125 C   0  0  0  0  0  0  0  0  0  0  0  0
   11.6314   -2.2099    1.5177 C   0  0  0  0  0  0  0  0  0  0  0  0
   12.9663   -2.5622    1.6828 C   0  0  0  0  0  0  0  0  0  0  0  0
   13.3107   -3.8711    2.0480 C   0  0  0  0  0  0  0  0  0  0  0  0
   14.7558   -4.2335    2.2742 C   0  0  1  0  0  0  0  0  0  0  0  0
   15.5758   -3.5489    1.4551 F   0  0  0  0  0  0  0  0  0  0  0  0
   15.1481   -3.9572    3.5343 F   0  0  0  0  0  0  0  0  0  0  0  0
   14.9838   -5.5431    2.0732 F   0  0  0  0  0  0  0  0  0  0  0  0
   12.3015   -4.8197    2.2405 C   0  0  0  0  0  0  0  0  0  0  0  0
   10.9632   -4.4666    2.0745 C   0  0  0  0  0  0  0  0  0  0  0  0
    8.3438   -3.8637    1.7205 O   0  0  0  0  0  0  0  0  0  0  0  0
    6.9674   -3.8116    1.6192 C   0  0  0  0  0  0  0  0  0  0  0  0
    6.3465   -4.8259    1.8060 O   0  0  0  0  0  0  0  0  0  0  0  0
    6.3984   -2.4913    1.2859 C   0  0  0  0  0  0  0  0  0  0  0  0
    5.0112   -2.3748    1.1656 C   0  0  0  0  0  0  0  0  0  0  0  0
    1.7513    2.1334    1.3031 H   0  0  0  0  0  0  0  0  0  0  0  0
    3.1460    1.3959    2.1305 H   0  0  0  0  0  0  0  0  0  0  0  0
    1.5217    0.7078    2.3459 H   0  0  0  0  0  0  0  0  0  0  0  0
    3.0146    0.8020   -0.3622 H   0  0  0  0  0  0  0  0  0  0  0  0
    1.4471    0.0670   -0.0842 H   0  0  0  0  0  0  0  0  0  0  0  0
    2.6324   -3.0560    0.3789 H   0  0  0  0  0  0  0  0  0  0  0  0
    1.2473   -1.9838    0.2608 H   0  0  0  0  0  0  0  0  0  0  0  0
    2.6627   -2.6980    2.9150 H   0  0  0  0  0  0  0  0  0  0  0  0
    1.1419   -3.4086    2.3234 H   0  0  0  0  0  0  0  0  0  0  0  0
    1.2097   -1.6828    2.7577 H   0  0  0  0  0  0  0  0  0  0  0  0
    4.8715    0.9615    0.4594 H   0  0  0  0  0  0  0  0  0  0  0  0
    7.2803    0.7381    0.6659 H   0  0  0  0  0  0  0  0  0  0  0  0
    9.3444   -0.7210    1.1067 H   0  0  0  0  0  0  0  0  0  0  0  0
   11.3931   -1.1862    1.2255 H   0  0  0  0  0  0  0  0  0  0  0  0
   13.7494   -1.8198    1.5179 H   0  0  0  0  0  0  0  0  0  0  0  0
   12.5631   -5.8432    2.5152 H   0  0  0  0  0  0  0  0  0  0  0  0
   10.1809   -5.2106    2.2221 H   0  0  0  0  0  0  0  0  0  0  0  0
    4.4303   -3.2794    1.3325 H   0  0  0  0  0  0  0  0  0  0  0  0
  1  2  1  0
  1 27  1  0
  1 28  1  0
  1 29  1  0
  2  3  1  0
  2 30  1  0
  2 31  1  0
  3  4  1  0
  3  6  1  0
  4  5  1  0
  4 32  1  0
  4 33  1  0
  5 34  1  0
  5 35  1  0
  5 36  1  0
  6  7  2  0
  6 26  1  0
  7  8  1  0
  7 37  1  0
  8  9  2  0
  8 38  1  0
  9 10  1  0
  9 25  1  0
 10 11  2  0
 10 39  1  0
 11 12  1  0
 11 22  1  0
 12 13  2  0
 12 21  1  0
 13 14  1  0
 13 40  1  0
 14 15  2  0
 14 41  1  0
 15 16  1  0
 15 20  1  0
 16 17  1  6
 16 18  1  0
 16 19  1  0
 20 21  2  0
 20 42  1  0
 21 43  1  0
 22 23  1  0
 23 24  2  0
 23 25  1  0
 25 26  2  0
 26 44  1  0
M  END

