
     RDKit          3D

 38 40  0  0  0  0  0  0  0  0999 V2000
    1.3185   -0.8247    0.9622 C   0  0  0  0  0  0  0  0  0  0  0  0
    2.5387   -0.3933    0.3810 O   0  0  0  0  0  0  0  0  0  0  0  0
    3.4676    0.1113    1.2701 C   0  0  0  0  0  0  0  0  0  0  0  0
    4.4666   -0.7701    1.7846 C   0  0  0  0  0  0  0  0  0  0  0  0
    4.5387   -2.1053    1.3592 C   0  0  0  0  0  0  0  0  0  0  0  0
    5.4382   -3.0019    1.8321 N   0  0  0  0  0  0  0  0  0  0  0  0
    5.5699   -4.2116    1.3322 N   0  0  0  0  0  0  0  0  0  0  0  0
    4.9880   -5.3531    1.8071 C   0  0  0  0  0  0  0  0  0  0  0  0
    4.0467   -5.3048    2.8682 C   0  0  0  0  0  0  0  0  0  0  0  0
    3.4583   -6.4745    3.3110 C   0  0  0  0  0  0  0  0  0  0  0  0
    3.7913   -7.7182    2.7214 C   0  0  0  0  0  0  0  0  0  0  0  0
    3.1772   -8.9237    3.1871 C   0  0  0  0  0  0  0  0  0  0  0  0
    2.6787   -9.9033    3.5642 N   0  0  0  0  0  0  0  0  0  0  0  0
    4.7425   -7.7650    1.6754 C   0  0  0  0  0  0  0  0  0  0  0  0
    5.3391   -6.6014    1.2278 C   0  0  0  0  0  0  0  0  0  0  0  0
    5.4082   -0.2186    2.7318 C   0  0  0  0  0  0  0  0  0  0  0  0
    5.3627    1.0931    3.1063 C   0  0  0  0  0  0  0  0  0  0  0  0
    4.3846    1.9949    2.5660 C   0  0  0  0  0  0  0  0  0  0  0  0
    4.3336    3.3584    2.9233 C   0  0  0  0  0  0  0  0  0  0  0  0
    3.3860    4.2149    2.3771 C   0  0  0  0  0  0  0  0  0  0  0  0
    2.4561    3.7167    1.4352 C   0  0  0  0  0  0  0  0  0  0  0  0
    2.4716    2.3870    1.0604 C   0  0  0  0  0  0  0  0  0  0  0  0
    3.4247    1.4788    1.6189 C   0  0  0  0  0  0  0  0  0  0  0  0
    0.6851   -1.2049    0.1470 H   0  0  0  0  0  0  0  0  0  0  0  0
    0.7917    0.0033    1.4689 H   0  0  0  0  0  0  0  0  0  0  0  0
    1.4842   -1.6340    1.6971 H   0  0  0  0  0  0  0  0  0  0  0  0
    3.8311   -2.4430    0.5915 H   0  0  0  0  0  0  0  0  0  0  0  0
    6.2891   -4.3586    0.6083 H   0  0  0  0  0  0  0  0  0  0  0  0
    3.8175   -4.3414    3.3218 H   0  0  0  0  0  0  0  0  0  0  0  0
    2.7344   -6.4471    4.1271 H   0  0  0  0  0  0  0  0  0  0  0  0
    5.0034   -8.7251    1.2274 H   0  0  0  0  0  0  0  0  0  0  0  0
    6.0753   -6.6345    0.4206 H   0  0  0  0  0  0  0  0  0  0  0  0
    6.1699   -0.8862    3.1398 H   0  0  0  0  0  0  0  0  0  0  0  0
    6.0890    1.4832    3.8252 H   0  0  0  0  0  0  0  0  0  0  0  0
    5.0645    3.7368    3.6442 H   0  0  0  0  0  0  0  0  0  0  0  0
    3.3632    5.2684    2.6655 H   0  0  0  0  0  0  0  0  0  0  0  0
    1.7213    4.3944    0.9914 H   0  0  0  0  0  0  0  0  0  0  0  0
    1.7692    2.0146    0.3132 H   0  0  0  0  0  0  0  0  0  0  0  0
  1  2  1  0
  1 24  1  0
  1 25  1  0
  1 26  1  0
  2  3  1  0
  3  4  2  0
  3 23  1  0
  4  5  1  0
  4 16  1  0
  5  6  2  0
  5 27  1  0
  6  7  1  0
  7  8  1  0
  7 28  1  0
  8  9  2  0
  8 15  1  0
  9 10  1  0
  9 29  1  0
 10 11  2  0
 10 30  1  0
 11 12  1  0
 11 14  1  0
 12 13  3  0
 14 15  2  0
 14 31  1  0
 15 32  1  0
 16 17  2  0
 16 33  1  0
 17 18  1  0
 17 34  1  0
 18 19  1  0
 18 23  2  0
 19 20  2  0
 19 35  1  0
 20 21  1  0
 20 36  1  0
 21 22  2  0
 21 37  1  0
 22 23  1  0
 22 38  1  0
M  END

