
     RDKit          3D

 39 42  0  0  0  0  0  0  0  0999 V2000
    0.9006   -0.0503   -0.4265 C   0  0  0  0  0  0  0  0  0  0  0  0
    1.9607   -0.2259    0.5078 O   0  0  0  0  0  0  0  0  0  0  0  0
    2.5246    0.8125    1.1202 C   0  0  0  0  0  0  0  0  0  0  0  0
    2.1423    2.1686    0.9160 C   0  0  0  0  0  0  0  0  0  0  0  0
    2.8044    3.1626    1.6114 C   0  0  0  0  0  0  0  0  0  0  0  0
    3.8585    2.8824    2.5273 C   0  0  0  0  0  0  0  0  0  0  0  0
    4.5951    3.9172    3.2941 C   0  0  0  0  0  0  0  0  0  0  0  0
    4.3465    5.3144    3.2231 C   0  0  0  0  0  0  0  0  0  0  0  0
    4.9805    6.2741    3.8945 N   0  0  0  0  0  0  0  0  0  0  0  0
    4.3721    7.4073    3.4727 C   0  0  0  0  0  0  0  0  0  0  0  0
    4.7443    8.7529    3.9503 C   0  0  0  0  0  0  0  0  0  0  0  0
    4.0823    9.8964    3.4683 C   0  0  0  0  0  0  0  0  0  0  0  0
    4.4557   11.1548    3.9347 C   0  0  0  0  0  0  0  0  0  0  0  0
    5.4822   11.2854    4.8777 C   0  0  0  0  0  0  0  0  0  0  0  0
    6.1536   10.1569    5.3712 C   0  0  0  0  0  0  0  0  0  0  0  0
    7.2578   10.2823    6.3940 C   0  0  0  0  0  0  0  0  0  0  0  0
    5.7704    8.8946    4.8942 C   0  0  0  0  0  0  0  0  0  0  0  0
    3.4024    7.2293    2.5853 N   0  0  0  0  0  0  0  0  0  0  0  0
    3.3728    5.8423    2.4084 O   0  0  0  0  0  0  0  0  0  0  0  0
    5.5994    3.4325    4.1363 C   0  0  0  0  0  0  0  0  0  0  0  0
    5.9515    2.0513    4.3053 C   0  0  0  0  0  0  0  0  0  0  0  0
    6.8004    1.5866    5.0242 O   0  0  0  0  0  0  0  0  0  0  0  0
    5.1989    1.1136    3.5450 O   0  0  0  0  0  0  0  0  0  0  0  0
    4.2239    1.5107    2.7144 C   0  0  0  0  0  0  0  0  0  0  0  0
    3.5659    0.4999    2.0222 C   0  0  0  0  0  0  0  0  0  0  0  0
    0.6311   -1.0558   -0.7699 H   0  0  0  0  0  0  0  0  0  0  0  0
    1.2304    0.5581   -1.2838 H   0  0  0  0  0  0  0  0  0  0  0  0
    0.0294    0.4236    0.0531 H   0  0  0  0  0  0  0  0  0  0  0  0
    1.3422    2.4323    0.2258 H   0  0  0  0  0  0  0  0  0  0  0  0
    2.5190    4.2016    1.4627 H   0  0  0  0  0  0  0  0  0  0  0  0
    3.2841    9.7825    2.7330 H   0  0  0  0  0  0  0  0  0  0  0  0
    3.9449   12.0466    3.5620 H   0  0  0  0  0  0  0  0  0  0  0  0
    5.7658   12.2795    5.2354 H   0  0  0  0  0  0  0  0  0  0  0  0
    7.4885   11.3351    6.6150 H   0  0  0  0  0  0  0  0  0  0  0  0
    8.1848    9.7987    6.0445 H   0  0  0  0  0  0  0  0  0  0  0  0
    6.9805    9.7929    7.3430 H   0  0  0  0  0  0  0  0  0  0  0  0
    6.2705    7.9925    5.2538 H   0  0  0  0  0  0  0  0  0  0  0  0
    6.1809    4.1393    4.7289 H   0  0  0  0  0  0  0  0  0  0  0  0
    3.8571   -0.5392    2.1766 H   0  0  0  0  0  0  0  0  0  0  0  0
  1  2  1  0
  1 26  1  0
  1 27  1  0
  1 28  1  0
  2  3  1  0
  3  4  2  0
  3 25  1  0
  4  5  1  0
  4 29  1  0
  5  6  2  0
  5 30  1  0
  6  7  1  0
  6 24  1  0
  7  8  1  0
  7 20  2  0
  8  9  2  0
  8 19  1  0
  9 10  1  0
 10 11  1  0
 10 18  2  0
 11 12  2  0
 11 17  1  0
 12 13  1  0
 12 31  1  0
 13 14  2  0
 13 32  1  0
 14 15  1  0
 14 33  1  0
 15 16  1  0
 15 17  2  0
 16 34  1  0
 16 35  1  0
 16 36  1  0
 17 37  1  0
 18 19  1  0
 20 21  1  0
 20 38  1  0
 21 22  2  0
 21 23  1  0
 23 24  1  0
 24 25  2  0
 25 39  1  0
M  END

