
     RDKit          3D

127141  0  0  0  0  0  0  0  0999 V2000
   10.1440    5.2844    2.2147 C   0  0  0  0  0  0  0  0  0  0  0  0
    9.1592    5.3338    3.2074 C   0  0  0  0  0  0  0  0  0  0  0  0
    8.2129    4.3140    3.3066 C   0  0  0  0  0  0  0  0  0  0  0  0
    8.2406    3.2294    2.4118 C   0  0  0  0  0  0  0  0  0  0  0  0
    7.2347    2.1421    2.5177 C   0  0  0  0  0  0  0  0  0  0  0  0
    6.3135    2.2227    3.4859 N   0  0  0  0  0  0  0  0  0  0  0  0
    5.4214    1.2259    3.5508 C   0  0  0  0  0  0  0  0  0  0  0  0
    4.3803    1.2809    4.6076 C   0  0  0  0  0  0  0  0  0  0  0  0
    4.3630    2.3385    5.5345 C   0  0  0  0  0  0  0  0  0  0  0  0
    3.3847    2.3894    6.5273 C   0  0  0  0  0  0  0  0  0  0  0  0
    2.4112    1.3874    6.6063 C   0  0  0  0  0  0  0  0  0  0  0  0
    2.4207    0.3323    5.6873 C   0  0  0  0  0  0  0  0  0  0  0  0
    3.3988    0.2774    4.6945 C   0  0  0  0  0  0  0  0  0  0  0  0
    5.4204    0.1791    2.7121 N   0  0  0  0  0  0  0  0  0  0  0  0
    6.3747    0.1727    1.7754 C   0  0  0  0  0  0  0  0  0  0  0  0
    6.4159   -0.9741    0.8286 C   0  0  0  0  0  0  0  0  0  0  0  0
    5.5014   -2.0346    0.9460 C   0  0  0  0  0  0  0  0  0  0  0  0
    5.5489   -3.1129    0.0675 C   0  0  0  0  0  0  0  0  0  0  0  0
    6.5051   -3.1649   -0.9673 C   0  0  0  0  0  0  0  0  0  0  0  0
    6.5603   -4.3102   -1.9051 C   0  0  0  0  0  0  0  0  0  0  0  0
    6.9379   -4.1307   -3.2534 C   0  0  0  0  0  0  0  0  0  0  0  0
    7.0127   -5.2136   -4.1163 C   0  0  0  0  0  0  0  0  0  0  0  0
    6.7051   -6.5088   -3.6578 C   0  0  0  0  0  0  0  0  0  0  0  0
    6.2467   -6.7137   -2.3350 C   0  0  0  0  0  0  0  0  0  0  0  0
    6.2120   -5.6092   -1.4834 C   0  0  0  0  0  0  0  0  0  0  0  0
    5.8457   -8.1250   -1.8665 C   0  0  2  0  0  0  0  0  0  0  0  0
    4.8649   -8.0513   -0.6896 C   0  0  0  0  0  0  0  0  0  0  0  0
    3.5812   -7.5091   -0.6673 C   0  0  0  0  0  0  0  0  0  0  0  0
    2.8541   -7.5378    0.5299 C   0  0  0  0  0  0  0  0  0  0  0  0
    3.4086   -8.1037    1.6867 C   0  0  0  0  0  0  0  0  0  0  0  0
    4.6948   -8.6503    1.6657 C   0  0  0  0  0  0  0  0  0  0  0  0
    5.4219   -8.6222    0.4696 C   0  0  0  0  0  0  0  0  0  0  0  0
    6.7666   -9.1205    0.1503 C   0  0  0  0  0  0  0  0  0  0  0  0
    7.7064   -9.7756    0.9515 C   0  0  0  0  0  0  0  0  0  0  0  0
    8.9246  -10.1668    0.3871 C   0  0  0  0  0  0  0  0  0  0  0  0
    9.1956   -9.9092   -0.9615 C   0  0  0  0  0  0  0  0  0  0  0  0
    8.2545   -9.2518   -1.7665 C   0  0  0  0  0  0  0  0  0  0  0  0
    7.0425   -8.8545   -1.2077 C   0  0  0  0  0  0  0  0  0  0  0  0
    5.2567   -8.8886   -3.0644 C   0  0  0  0  0  0  0  0  0  0  0  0
    4.2477   -9.8406   -2.9177 C   0  0  0  0  0  0  0  0  0  0  0  0
    3.6007  -10.4577   -4.0204 C   0  0  0  0  0  0  0  0  0  0  0  0
    2.5598  -11.4753   -3.8415 C   0  0  0  0  0  0  0  0  0  0  0  0
    1.8743  -11.6465   -2.6072 C   0  0  0  0  0  0  0  0  0  0  0  0
    0.8978  -12.6115   -2.4397 C   0  0  0  0  0  0  0  0  0  0  0  0
    0.5384  -13.4934   -3.4966 C   0  0  0  0  0  0  0  0  0  0  0  0
   -0.4757  -14.5136   -3.3216 C   0  0  0  0  0  0  0  0  0  0  0  0
   -1.0884  -14.6334   -2.1109 N   0  0  0  0  0  0  0  0  0  0  0  0
   -2.0040  -15.5838   -2.0014 C   0  0  0  0  0  0  0  0  0  0  0  0
   -2.6932  -15.7404   -0.6868 C   0  0  0  0  0  0  0  0  0  0  0  0
   -2.3705  -14.9059    0.3976 C   0  0  0  0  0  0  0  0  0  0  0  0
   -3.0158  -15.0555    1.6255 C   0  0  0  0  0  0  0  0  0  0  0  0
   -3.9956  -16.0419    1.7918 C   0  0  0  0  0  0  0  0  0  0  0  0
   -4.3231  -16.8765    0.7187 C   0  0  0  0  0  0  0  0  0  0  0  0
   -3.6777  -16.7280   -0.5110 C   0  0  0  0  0  0  0  0  0  0  0  0
   -2.3644  -16.4272   -2.9931 N   0  0  0  0  0  0  0  0  0  0  0  0
   -1.7121  -16.2427   -4.1616 C   0  0  0  0  0  0  0  0  0  0  0  0
   -2.0690  -17.1467   -5.2943 C   0  0  0  0  0  0  0  0  0  0  0  0
   -3.0391  -18.1500   -5.1283 C   0  0  0  0  0  0  0  0  0  0  0  0
   -3.3731  -18.9970   -6.1875 C   0  0  0  0  0  0  0  0  0  0  0  0
   -2.7443  -18.8552   -7.4285 C   0  0  0  0  0  0  0  0  0  0  0  0
   -1.7768  -17.8581   -7.6027 C   0  0  0  0  0  0  0  0  0  0  0  0
   -1.4420  -17.0118   -6.5454 C   0  0  0  0  0  0  0  0  0  0  0  0
   -0.7832  -15.3231   -4.3730 N   0  0  0  0  0  0  0  0  0  0  0  0
    1.2235  -13.3301   -4.7330 C   0  0  0  0  0  0  0  0  0  0  0  0
    2.1906  -12.3551   -4.8959 C   0  0  0  0  0  0  0  0  0  0  0  0
    3.9905  -10.0028   -5.3087 C   0  0  0  0  0  0  0  0  0  0  0  0
    5.0149   -9.0821   -5.4788 C   0  0  0  0  0  0  0  0  0  0  0  0
    5.6972   -8.5749   -4.3622 C   0  0  0  0  0  0  0  0  0  0  0  0
    6.8010   -7.6418   -4.4992 N   0  0  0  0  0  0  0  0  0  0  0  0
    7.9370   -7.9330   -5.2324 C   0  0  0  0  0  0  0  0  0  0  0  0
    8.0130   -9.1124   -6.0360 C   0  0  0  0  0  0  0  0  0  0  0  0
    9.1520   -9.3921   -6.7742 C   0  0  0  0  0  0  0  0  0  0  0  0
   10.2642   -8.5378   -6.7379 C   0  0  0  0  0  0  0  0  0  0  0  0
   10.2302   -7.4059   -5.9082 C   0  0  0  0  0  0  0  0  0  0  0  0
    9.1043   -7.1092   -5.1579 C   0  0  0  0  0  0  0  0  0  0  0  0
    7.4132   -2.0927   -1.0828 C   0  0  0  0  0  0  0  0  0  0  0  0
    7.3742   -1.0195   -0.1981 C   0  0  0  0  0  0  0  0  0  0  0  0
    7.2977    1.1312    1.6387 N   0  0  0  0  0  0  0  0  0  0  0  0
    9.2335    3.1876    1.4168 C   0  0  0  0  0  0  0  0  0  0  0  0
   10.1783    4.2091    1.3202 C   0  0  0  0  0  0  0  0  0  0  0  0
   10.8851    6.0844    2.1383 H   0  0  0  0  0  0  0  0  0  0  0  0
    9.1295    6.1725    3.9075 H   0  0  0  0  0  0  0  0  0  0  0  0
    7.4402    4.3405    4.0752 H   0  0  0  0  0  0  0  0  0  0  0  0
    5.1265    3.1133    5.4623 H   0  0  0  0  0  0  0  0  0  0  0  0
    3.3799    3.2145    7.2438 H   0  0  0  0  0  0  0  0  0  0  0  0
    1.6444    1.4289    7.3842 H   0  0  0  0  0  0  0  0  0  0  0  0
    1.6610   -0.4512    5.7458 H   0  0  0  0  0  0  0  0  0  0  0  0
    3.4170   -0.5392    3.9725 H   0  0  0  0  0  0  0  0  0  0  0  0
    4.7513   -1.9962    1.7361 H   0  0  0  0  0  0  0  0  0  0  0  0
    4.8140   -3.9141    0.1695 H   0  0  0  0  0  0  0  0  0  0  0  0
    7.1335   -3.1282   -3.6371 H   0  0  0  0  0  0  0  0  0  0  0  0
    7.2635   -5.0602   -5.1668 H   0  0  0  0  0  0  0  0  0  0  0  0
    5.9183   -5.7660   -0.4461 H   0  0  0  0  0  0  0  0  0  0  0  0
    3.1392   -7.0783   -1.5690 H   0  0  0  0  0  0  0  0  0  0  0  0
    1.8428   -7.1252    0.5587 H   0  0  0  0  0  0  0  0  0  0  0  0
    2.8264   -8.1241    2.6112 H   0  0  0  0  0  0  0  0  0  0  0  0
    5.1196   -9.0962    2.5681 H   0  0  0  0  0  0  0  0  0  0  0  0
    7.4923   -9.9857    2.0022 H   0  0  0  0  0  0  0  0  0  0  0  0
    9.6667  -10.6828    1.0011 H   0  0  0  0  0  0  0  0  0  0  0  0
   10.1469  -10.2276   -1.3949 H   0  0  0  0  0  0  0  0  0  0  0  0
    8.4818   -9.0719   -2.8177 H   0  0  0  0  0  0  0  0  0  0  0  0
    3.9418  -10.1132   -1.9093 H   0  0  0  0  0  0  0  0  0  0  0  0
    2.0913  -10.9837   -1.7662 H   0  0  0  0  0  0  0  0  0  0  0  0
    0.3778  -12.7105   -1.4866 H   0  0  0  0  0  0  0  0  0  0  0  0
   -1.6051  -14.1427    0.2519 H   0  0  0  0  0  0  0  0  0  0  0  0
   -2.7543  -14.3990    2.4602 H   0  0  0  0  0  0  0  0  0  0  0  0
   -4.5011  -16.1588    2.7545 H   0  0  0  0  0  0  0  0  0  0  0  0
   -5.0872  -17.6494    0.8406 H   0  0  0  0  0  0  0  0  0  0  0  0
   -3.9213  -17.3709   -1.3572 H   0  0  0  0  0  0  0  0  0  0  0  0
   -3.5201  -18.2479   -4.1547 H   0  0  0  0  0  0  0  0  0  0  0  0
   -4.1297  -19.7735   -6.0436 H   0  0  0  0  0  0  0  0  0  0  0  0
   -3.0063  -19.5188   -8.2574 H   0  0  0  0  0  0  0  0  0  0  0  0
   -1.2809  -17.7410   -8.5704 H   0  0  0  0  0  0  0  0  0  0  0  0
   -0.6907  -16.2303   -6.6647 H   0  0  0  0  0  0  0  0  0  0  0  0
    0.9736  -14.0028   -5.5536 H   0  0  0  0  0  0  0  0  0  0  0  0
    2.7029  -12.2941   -5.8593 H   0  0  0  0  0  0  0  0  0  0  0  0
    3.4594  -10.3596   -6.1912 H   0  0  0  0  0  0  0  0  0  0  0  0
    5.2680   -8.7334   -6.4817 H   0  0  0  0  0  0  0  0  0  0  0  0
    7.1791   -9.8071   -6.0594 H   0  0  0  0  0  0  0  0  0  0  0  0
    9.1798  -10.2990   -7.3817 H   0  0  0  0  0  0  0  0  0  0  0  0
   11.1569   -8.7672   -7.3227 H   0  0  0  0  0  0  0  0  0  0  0  0
   11.1077   -6.7607   -5.8282 H   0  0  0  0  0  0  0  0  0  0  0  0
    9.1321   -6.2616   -4.4780 H   0  0  0  0  0  0  0  0  0  0  0  0
    8.1827   -2.1144   -1.8576 H   0  0  0  0  0  0  0  0  0  0  0  0
    8.0897   -0.2016   -0.2840 H   0  0  0  0  0  0  0  0  0  0  0  0
    9.2503    2.3440    0.7264 H   0  0  0  0  0  0  0  0  0  0  0  0
   10.9464    4.1677    0.5439 H   0  0  0  0  0  0  0  0  0  0  0  0
  1  2  2  0
  1 80  1  0
  1 81  1  0
  2  3  1  0
  2 82  1  0
  3  4  2  0
  3 83  1  0
  4  5  1  0
  4 79  1  0
  5  6  2  0
  5 78  1  0
  6  7  1  0
  7  8  1  0
  7 14  2  0
  8  9  2  0
  8 13  1  0
  9 10  1  0
  9 84  1  0
 10 11  2  0
 10 85  1  0
 11 12  1  0
 11 86  1  0
 12 13  2  0
 12 87  1  0
 13 88  1  0
 14 15  1  0
 15 16  1  0
 15 78  2  0
 16 17  2  0
 16 77  1  0
 17 18  1  0
 17 89  1  0
 18 19  2  0
 18 90  1  0
 19 20  1  0
 19 76  1  0
 20 21  2  0
 20 25  1  0
 21 22  1  0
 21 91  1  0
 22 23  2  0
 22 92  1  0
 23 24  1  0
 23 69  1  0
 24 25  2  0
 26 24  1  6
 25 93  1  0
 26 27  1  0
 26 38  1  0
 26 39  1  0
 27 28  2  0
 27 32  1  0
 28 29  1  0
 28 94  1  0
 29 30  2  0
 29 95  1  0
 30 31  1  0
 30 96  1  0
 31 32  2  0
 31 97  1  0
 32 33  1  0
 33 34  2  0
 33 38  1  0
 34 35  1  0
 34 98  1  0
 35 36  2  0
 35 99  1  0
 36 37  1  0
 36100  1  0
 37 38  2  0
 37101  1  0
 39 40  1  0
 39 68  2  0
 40 41  2  0
 40102  1  0
 41 42  1  0
 41 66  1  0
 42 43  2  0
 42 65  1  0
 43 44  1  0
 43103  1  0
 44 45  2  0
 44104  1  0
 45 46  1  0
 45 64  1  0
 46 47  2  0
 46 63  1  0
 47 48  1  0
 48 49  1  0
 48 55  2  0
 49 50  2  0
 49 54  1  0
 50 51  1  0
 50105  1  0
 51 52  2  0
 51106  1  0
 52 53  1  0
 52107  1  0
 53 54  2  0
 53108  1  0
 54109  1  0
 55 56  1  0
 56 57  1  0
 56 63  2  0
 57 58  2  0
 57 62  1  0
 58 59  1  0
 58110  1  0
 59 60  2  0
 59111  1  0
 60 61  1  0
 60112  1  0
 61 62  2  0
 61113  1  0
 62114  1  0
 64 65  2  0
 64115  1  0
 65116  1  0
 66 67  2  0
 66117  1  0
 67 68  1  0
 67118  1  0
 68 69  1  0
 69 70  1  0
 70 71  2  0
 70 75  1  0
 71 72  1  0
 71119  1  0
 72 73  2  0
 72120  1  0
 73 74  1  0
 73121  1  0
 74 75  2  0
 74122  1  0
 75123  1  0
 76 77  2  0
 76124  1  0
 77125  1  0
 79 80  2  0
 79126  1  0
 80127  1  0
M  END

