
     RDKit          3D

 30 32  0  0  0  0  0  0  0  0999 V2000
    1.9381   -0.7648    0.8716 C   0  0  0  0  0  0  0  0  0  0  0  0
    2.6800    0.0714    0.0090 O   0  0  0  0  0  0  0  0  0  0  0  0
    3.0413   -0.3832   -1.2113 C   0  0  0  0  0  0  0  0  0  0  0  0
    3.7777    0.5112   -2.0151 C   0  0  0  0  0  0  0  0  0  0  0  0
    4.1900    0.1351   -3.2804 C   0  0  0  0  0  0  0  0  0  0  0  0
    3.8923   -1.1468   -3.8063 C   0  0  0  0  0  0  0  0  0  0  0  0
    4.3710   -1.4693   -5.1691 C   0  0  0  0  0  0  0  0  0  0  0  0
    5.0214   -0.5573   -5.8318 N   0  0  0  0  0  0  0  0  0  0  0  0
    5.4948   -0.7977   -7.0993 C   0  0  0  0  0  0  0  0  0  0  0  0
    6.1959    0.1968   -7.8127 C   0  0  0  0  0  0  0  0  0  0  0  0
    6.6691   -0.0626   -9.0937 C   0  0  0  0  0  0  0  0  0  0  0  0
    6.4523   -1.3195   -9.6864 C   0  0  0  0  0  0  0  0  0  0  0  0
    5.7621   -2.3193   -9.0019 C   0  0  0  0  0  0  0  0  0  0  0  0
    5.2906   -2.0465   -7.7165 C   0  0  0  0  0  0  0  0  0  0  0  0
    4.6129   -3.0122   -7.0393 O   0  0  0  0  0  0  0  0  0  0  0  0
    4.1123   -2.8261   -5.7727 C   0  0  0  0  0  0  0  0  0  0  0  0
    3.5250   -3.7455   -5.2673 O   0  0  0  0  0  0  0  0  0  0  0  0
    3.1570   -2.0290   -2.9912 C   0  0  0  0  0  0  0  0  0  0  0  0
    2.7356   -1.6569   -1.7122 C   0  0  0  0  0  0  0  0  0  0  0  0
    1.7609   -0.1878    1.7888 H   0  0  0  0  0  0  0  0  0  0  0  0
    2.4935   -1.6846    1.1278 H   0  0  0  0  0  0  0  0  0  0  0  0
    0.9655   -1.0466    0.4309 H   0  0  0  0  0  0  0  0  0  0  0  0
    4.0095    1.4992   -1.6124 H   0  0  0  0  0  0  0  0  0  0  0  0
    4.7584    0.8283   -3.9006 H   0  0  0  0  0  0  0  0  0  0  0  0
    6.3486    1.1616   -7.3250 H   0  0  0  0  0  0  0  0  0  0  0  0
    7.2113    0.7106   -9.6425 H   0  0  0  0  0  0  0  0  0  0  0  0
    6.8266   -1.5183  -10.6935 H   0  0  0  0  0  0  0  0  0  0  0  0
    5.5794   -3.3027   -9.4389 H   0  0  0  0  0  0  0  0  0  0  0  0
    2.9095   -3.0209   -3.3612 H   0  0  0  0  0  0  0  0  0  0  0  0
    2.1689   -2.3737   -1.1178 H   0  0  0  0  0  0  0  0  0  0  0  0
  1  2  1  0
  1 20  1  0
  1 21  1  0
  1 22  1  0
  2  3  1  0
  3  4  2  0
  3 19  1  0
  4  5  1  0
  4 23  1  0
  5  6  2  0
  5 24  1  0
  6  7  1  0
  6 18  1  0
  7  8  2  0
  7 16  1  0
  8  9  1  0
  9 10  2  0
  9 14  1  0
 10 11  1  0
 10 25  1  0
 11 12  2  0
 11 26  1  0
 12 13  1  0
 12 27  1  0
 13 14  2  0
 13 28  1  0
 14 15  1  0
 15 16  1  0
 16 17  2  0
 18 19  2  0
 18 29  1  0
 19 30  1  0
M  END

