
     RDKit          3D

 99110  0  0  0  0  0  0  0  0999 V2000
   -8.2254   -7.1159   -1.9375 C   0  0  0  0  0  0  0  0  0  0  0  0
   -6.8643   -7.0333   -2.2455 C   0  0  0  0  0  0  0  0  0  0  0  0
   -6.1273   -5.9030   -1.8859 C   0  0  0  0  0  0  0  0  0  0  0  0
   -6.7297   -4.8261   -1.2065 C   0  0  0  0  0  0  0  0  0  0  0  0
   -5.9441   -3.6219   -0.8243 C   0  0  0  0  0  0  0  0  0  0  0  0
   -4.5994   -3.7455   -0.3921 C   0  0  0  0  0  0  0  0  0  0  0  0
   -3.8274   -2.6451   -0.0268 C   0  0  0  0  0  0  0  0  0  0  0  0
   -4.4148   -1.3764   -0.0983 C   0  0  0  0  0  0  0  0  0  0  0  0
   -5.7626   -1.2175   -0.5193 C   0  0  0  0  0  0  0  0  0  0  0  0
   -6.5153   -2.3411   -0.8796 C   0  0  0  0  0  0  0  0  0  0  0  0
   -6.0489    0.2043   -0.4636 C   0  0  0  0  0  0  0  0  0  0  0  0
   -7.1795    0.9745   -0.7599 C   0  0  0  0  0  0  0  0  0  0  0  0
   -7.1449    2.3689   -0.6046 C   0  0  0  0  0  0  0  0  0  0  0  0
   -8.3384    3.2017   -0.9138 C   0  0  0  0  0  0  0  0  0  0  0  0
   -8.6635    4.3279   -0.1328 C   0  0  0  0  0  0  0  0  0  0  0  0
   -9.7841    5.1090   -0.4230 C   0  0  0  0  0  0  0  0  0  0  0  0
  -10.6117    4.7831   -1.5016 C   0  0  0  0  0  0  0  0  0  0  0  0
  -10.3045    3.6681   -2.2872 C   0  0  0  0  0  0  0  0  0  0  0  0
   -9.1820    2.8895   -1.9979 C   0  0  0  0  0  0  0  0  0  0  0  0
   -5.9445    2.9704   -0.1494 C   0  0  0  0  0  0  0  0  0  0  0  0
   -4.8045    2.2289    0.1521 C   0  0  0  0  0  0  0  0  0  0  0  0
   -4.8643    0.8388   -0.0019 C   0  0  0  0  0  0  0  0  0  0  0  0
   -3.8803   -0.1267    0.2150 N   0  0  0  0  0  0  0  0  0  0  0  0
   -2.5529    0.1218    0.6685 C   0  0  0  0  0  0  0  0  0  0  0  0
   -1.4609   -0.1649   -0.1791 C   0  0  0  0  0  0  0  0  0  0  0  0
   -0.1473    0.0571    0.2292 C   0  0  0  0  0  0  0  0  0  0  0  0
    0.0660    0.5878    1.5081 C   0  0  0  0  0  0  0  0  0  0  0  0
   -1.0240    0.9050    2.3636 C   0  0  0  0  0  0  0  0  0  0  0  0
   -2.3360    0.6563    1.9420 C   0  0  0  0  0  0  0  0  0  0  0  0
   -0.4569    1.4615    3.5761 C   0  0  0  0  0  0  0  0  0  0  0  0
   -1.0118    1.9337    4.7746 C   0  0  0  0  0  0  0  0  0  0  0  0
   -0.1626    2.3936    5.7793 C   0  0  0  0  0  0  0  0  0  0  0  0
    1.2335    2.3769    5.5992 C   0  0  0  0  0  0  0  0  0  0  0  0
    1.8106    1.9125    4.4168 C   0  0  0  0  0  0  0  0  0  0  0  0
    0.9532    1.4644    3.4036 C   0  0  0  0  0  0  0  0  0  0  0  0
    1.2611    0.9312    2.1452 N   0  0  0  0  0  0  0  0  0  0  0  0
    2.5632    0.7783    1.6042 C   0  0  0  0  0  0  0  0  0  0  0  0
    3.4294    1.8807    1.5205 C   0  0  0  0  0  0  0  0  0  0  0  0
    4.7087    1.7278    0.9921 C   0  0  0  0  0  0  0  0  0  0  0  0
    5.1480    0.4777    0.5236 C   0  0  0  0  0  0  0  0  0  0  0  0
    6.5096    0.3205   -0.0498 C   0  0  0  0  0  0  0  0  0  0  0  0
    6.8677   -0.8880   -0.4998 N   0  0  0  0  0  0  0  0  0  0  0  0
    8.1021   -0.9880   -1.0122 C   0  0  0  0  0  0  0  0  0  0  0  0
    8.5457   -2.3106   -1.5228 C   0  0  0  0  0  0  0  0  0  0  0  0
    7.6870   -3.4225   -1.4634 C   0  0  0  0  0  0  0  0  0  0  0  0
    8.1060   -4.6635   -1.9430 C   0  0  0  0  0  0  0  0  0  0  0  0
    9.3862   -4.8103   -2.4882 C   0  0  0  0  0  0  0  0  0  0  0  0
   10.2467   -3.7088   -2.5513 C   0  0  0  0  0  0  0  0  0  0  0  0
    9.8307   -2.4666   -2.0722 C   0  0  0  0  0  0  0  0  0  0  0  0
    8.9571    0.0398   -1.0887 N   0  0  0  0  0  0  0  0  0  0  0  0
    8.5229    1.2150   -0.6157 C   0  0  0  0  0  0  0  0  0  0  0  0
    9.4414    2.3809   -0.6798 C   0  0  0  0  0  0  0  0  0  0  0  0
   10.7265    2.2451   -1.2342 C   0  0  0  0  0  0  0  0  0  0  0  0
   11.5877    3.3407   -1.2941 C   0  0  0  0  0  0  0  0  0  0  0  0
   11.1777    4.5845   -0.8017 C   0  0  0  0  0  0  0  0  0  0  0  0
    9.9007    4.7280   -0.2482 C   0  0  0  0  0  0  0  0  0  0  0  0
    9.0370    3.6344   -0.1874 C   0  0  0  0  0  0  0  0  0  0  0  0
    7.3050    1.3962   -0.0868 N   0  0  0  0  0  0  0  0  0  0  0  0
    4.2744   -0.6200    0.6057 C   0  0  0  0  0  0  0  0  0  0  0  0
    2.9991   -0.4758    1.1465 C   0  0  0  0  0  0  0  0  0  0  0  0
   -8.1014   -4.9274   -0.9023 C   0  0  0  0  0  0  0  0  0  0  0  0
   -8.8401   -6.0558   -1.2643 C   0  0  0  0  0  0  0  0  0  0  0  0
   -8.8029   -8.0000   -2.2194 H   0  0  0  0  0  0  0  0  0  0  0  0
   -6.3729   -7.8515   -2.7790 H   0  0  0  0  0  0  0  0  0  0  0  0
   -5.0710   -5.8425   -2.1582 H   0  0  0  0  0  0  0  0  0  0  0  0
   -4.1586   -4.7420   -0.3158 H   0  0  0  0  0  0  0  0  0  0  0  0
   -2.7994   -2.7742    0.3160 H   0  0  0  0  0  0  0  0  0  0  0  0
   -7.5436   -2.2173   -1.2267 H   0  0  0  0  0  0  0  0  0  0  0  0
   -8.0984    0.4858   -1.0916 H   0  0  0  0  0  0  0  0  0  0  0  0
   -8.0421    4.5806    0.7296 H   0  0  0  0  0  0  0  0  0  0  0  0
  -10.0172    5.9735    0.2045 H   0  0  0  0  0  0  0  0  0  0  0  0
  -11.4892    5.3939   -1.7286 H   0  0  0  0  0  0  0  0  0  0  0  0
  -10.9379    3.4072   -3.1393 H   0  0  0  0  0  0  0  0  0  0  0  0
   -8.9403    2.0384   -2.6390 H   0  0  0  0  0  0  0  0  0  0  0  0
   -5.9009    4.0579   -0.0569 H   0  0  0  0  0  0  0  0  0  0  0  0
   -3.8903    2.7225    0.4862 H   0  0  0  0  0  0  0  0  0  0  0  0
   -1.6595   -0.5607   -1.1771 H   0  0  0  0  0  0  0  0  0  0  0  0
    0.6841   -0.1626   -0.4417 H   0  0  0  0  0  0  0  0  0  0  0  0
   -3.1865    0.8734    2.5914 H   0  0  0  0  0  0  0  0  0  0  0  0
   -2.0950    1.9362    4.9195 H   0  0  0  0  0  0  0  0  0  0  0  0
   -0.5810    2.7652    6.7175 H   0  0  0  0  0  0  0  0  0  0  0  0
    1.8831    2.7319    6.4033 H   0  0  0  0  0  0  0  0  0  0  0  0
    2.8943    1.8948    4.2934 H   0  0  0  0  0  0  0  0  0  0  0  0
    3.0871    2.8605    1.8583 H   0  0  0  0  0  0  0  0  0  0  0  0
    5.3829    2.5815    0.9211 H   0  0  0  0  0  0  0  0  0  0  0  0
    6.6916   -3.2954   -1.0372 H   0  0  0  0  0  0  0  0  0  0  0  0
    7.4312   -5.5218   -1.8921 H   0  0  0  0  0  0  0  0  0  0  0  0
    9.7133   -5.7833   -2.8639 H   0  0  0  0  0  0  0  0  0  0  0  0
   11.2474   -3.8198   -2.9764 H   0  0  0  0  0  0  0  0  0  0  0  0
   10.4917   -1.6007   -2.1157 H   0  0  0  0  0  0  0  0  0  0  0  0
   11.0338    1.2706   -1.6143 H   0  0  0  0  0  0  0  0  0  0  0  0
   12.5846    3.2251   -1.7269 H   0  0  0  0  0  0  0  0  0  0  0  0
   11.8537    5.4423   -0.8492 H   0  0  0  0  0  0  0  0  0  0  0  0
    9.5773    5.6981    0.1375 H   0  0  0  0  0  0  0  0  0  0  0  0
    8.0393    3.7335    0.2409 H   0  0  0  0  0  0  0  0  0  0  0  0
    4.6175   -1.5922    0.2514 H   0  0  0  0  0  0  0  0  0  0  0  0
    2.3368   -1.3395    1.2304 H   0  0  0  0  0  0  0  0  0  0  0  0
   -8.5902   -4.1203   -0.3515 H   0  0  0  0  0  0  0  0  0  0  0  0
   -9.9017   -6.1111   -1.0090 H   0  0  0  0  0  0  0  0  0  0  0  0
  1  2  2  0
  1 62  1  0
  1 63  1  0
  2  3  1  0
  2 64  1  0
  3  4  2  0
  3 65  1  0
  4  5  1  0
  4 61  1  0
  5  6  2  0
  5 10  1  0
  6  7  1  0
  6 66  1  0
  7  8  2  0
  7 67  1  0
  8  9  1  0
  8 23  1  0
  9 10  2  0
  9 11  1  0
 10 68  1  0
 11 12  2  0
 11 22  1  0
 12 13  1  0
 12 69  1  0
 13 14  1  0
 13 20  2  0
 14 15  2  0
 14 19  1  0
 15 16  1  0
 15 70  1  0
 16 17  2  0
 16 71  1  0
 17 18  1  0
 17 72  1  0
 18 19  2  0
 18 73  1  0
 19 74  1  0
 20 21  1  0
 20 75  1  0
 21 22  2  0
 21 76  1  0
 22 23  1  0
 23 24  1  0
 24 25  2  0
 24 29  1  0
 25 26  1  0
 25 77  1  0
 26 27  2  0
 26 78  1  0
 27 28  1  0
 27 36  1  0
 28 29  2  0
 28 30  1  0
 29 79  1  0
 30 31  2  0
 30 35  1  0
 31 32  1  0
 31 80  1  0
 32 33  2  0
 32 81  1  0
 33 34  1  0
 33 82  1  0
 34 35  2  0
 34 83  1  0
 35 36  1  0
 36 37  1  0
 37 38  2  0
 37 60  1  0
 38 39  1  0
 38 84  1  0
 39 40  2  0
 39 85  1  0
 40 41  1  0
 40 59  1  0
 41 42  2  0
 41 58  1  0
 42 43  1  0
 43 44  1  0
 43 50  2  0
 44 45  2  0
 44 49  1  0
 45 46  1  0
 45 86  1  0
 46 47  2  0
 46 87  1  0
 47 48  1  0
 47 88  1  0
 48 49  2  0
 48 89  1  0
 49 90  1  0
 50 51  1  0
 51 52  1  0
 51 58  2  0
 52 53  2  0
 52 57  1  0
 53 54  1  0
 53 91  1  0
 54 55  2  0
 54 92  1  0
 55 56  1  0
 55 93  1  0
 56 57  2  0
 56 94  1  0
 57 95  1  0
 59 60  2  0
 59 96  1  0
 60 97  1  0
 61 62  2  0
 61 98  1  0
 62 99  1  0
M  END

