
     RDKit          3D

 43 46  0  0  0  0  0  0  0  0999 V2000
    2.0090    1.4467   -0.6116 C   0  0  0  0  0  0  0  0  0  0  0  0
    2.1956    0.3099    0.2040 O   0  0  0  0  0  0  0  0  0  0  0  0
    3.1358    0.3323    1.1760 C   0  0  0  0  0  0  0  0  0  0  0  0
    3.9756    1.4259    1.4472 C   0  0  0  0  0  0  0  0  0  0  0  0
    4.9141    1.3439    2.4762 C   0  0  0  0  0  0  0  0  0  0  0  0
    5.0442    0.1789    3.2573 C   0  0  0  0  0  0  0  0  0  0  0  0
    6.0055    0.1008    4.3066 C   0  0  0  0  0  0  0  0  0  0  0  0
    6.8264    0.0142    5.2051 C   0  0  0  0  0  0  0  0  0  0  0  0
    7.7491   -0.0268    6.2985 C   0  0  0  0  0  0  0  0  0  0  0  0
    8.2257    1.1382    6.7114 N   0  0  0  0  0  0  0  0  0  0  0  0
    9.0170    1.1640    7.8081 C   0  0  0  0  0  0  0  0  0  0  0  0
    9.5514    2.3963    8.2762 C   0  0  0  0  0  0  0  0  0  0  0  0
   10.3232    2.4223    9.4189 C   0  0  0  0  0  0  0  0  0  0  0  0
   10.5915    1.2262   10.1380 C   0  0  0  0  0  0  0  0  0  0  0  0
   10.0925    0.0157    9.7027 C   0  0  0  0  0  0  0  0  0  0  0  0
    9.3009   -0.0431    8.5236 C   0  0  0  0  0  0  0  0  0  0  0  0
    8.8398   -1.2326    8.0689 N   0  0  0  0  0  0  0  0  0  0  0  0
    8.1059   -1.2706    6.9727 C   0  0  0  0  0  0  0  0  0  0  0  0
    7.6742   -2.6082    6.5091 C   0  0  0  0  0  0  0  0  0  0  0  0
    7.5398   -3.6550    7.3939 C   0  0  0  0  0  0  0  0  0  0  0  0
    7.0857   -5.1288    6.6120 S   0  0  0  0  0  0  0  0  0  0  0  0
    7.0944   -4.3377    5.0501 C   0  0  0  0  0  0  0  0  0  0  0  0
    6.8063   -5.1020    3.9835 O   0  0  0  0  0  0  0  0  0  0  0  0
    6.8713   -4.4807    2.7134 C   0  0  0  0  0  0  0  0  0  0  0  0
    7.4160   -3.0069    5.1466 C   0  0  0  0  0  0  0  0  0  0  0  0
    4.1878   -0.9126    2.9730 C   0  0  0  0  0  0  0  0  0  0  0  0
    3.2524   -0.8374    1.9520 C   0  0  0  0  0  0  0  0  0  0  0  0
    1.2026    1.1975   -1.3140 H   0  0  0  0  0  0  0  0  0  0  0  0
    2.9200    1.6938   -1.1855 H   0  0  0  0  0  0  0  0  0  0  0  0
    1.7089    2.3304   -0.0207 H   0  0  0  0  0  0  0  0  0  0  0  0
    3.9060    2.3449    0.8650 H   0  0  0  0  0  0  0  0  0  0  0  0
    5.5631    2.1973    2.6830 H   0  0  0  0  0  0  0  0  0  0  0  0
    9.3217    3.3003    7.7085 H   0  0  0  0  0  0  0  0  0  0  0  0
   10.7320    3.3690    9.7810 H   0  0  0  0  0  0  0  0  0  0  0  0
   11.2031    1.2705   11.0428 H   0  0  0  0  0  0  0  0  0  0  0  0
   10.2912   -0.9184   10.2321 H   0  0  0  0  0  0  0  0  0  0  0  0
    7.6964   -3.6191    8.4694 H   0  0  0  0  0  0  0  0  0  0  0  0
    6.6182   -5.2507    1.9731 H   0  0  0  0  0  0  0  0  0  0  0  0
    7.8856   -4.0945    2.5091 H   0  0  0  0  0  0  0  0  0  0  0  0
    6.1512   -3.6472    2.6352 H   0  0  0  0  0  0  0  0  0  0  0  0
    7.4933   -2.3391    4.2931 H   0  0  0  0  0  0  0  0  0  0  0  0
    4.2636   -1.8192    3.5772 H   0  0  0  0  0  0  0  0  0  0  0  0
    2.5861   -1.6733    1.7302 H   0  0  0  0  0  0  0  0  0  0  0  0
  1  2  1  0
  1 28  1  0
  1 29  1  0
  1 30  1  0
  2  3  1  0
  3  4  2  0
  3 27  1  0
  4  5  1  0
  4 31  1  0
  5  6  2  0
  5 32  1  0
  6  7  1  0
  6 26  1  0
  7  8  3  0
  8  9  1  0
  9 10  2  0
  9 18  1  0
 10 11  1  0
 11 12  2  0
 11 16  1  0
 12 13  1  0
 12 33  1  0
 13 14  2  0
 13 34  1  0
 14 15  1  0
 14 35  1  0
 15 16  2  0
 15 36  1  0
 16 17  1  0
 17 18  2  0
 18 19  1  0
 19 20  2  0
 19 25  1  0
 20 21  1  0
 20 37  1  0
 21 22  1  0
 22 23  1  0
 22 25  2  0
 23 24  1  0
 24 38  1  0
 24 39  1  0
 24 40  1  0
 25 41  1  0
 26 27  2  0
 26 42  1  0
 27 43  1  0
M  END

