
     RDKit          3D

 16 16  0  0  0  0  0  0  0  0999 V2000
    0.9719   -0.0732    0.0726 C   0  0  0  0  0  0  0  0  0  0  0  0
    2.4600   -0.0463   -0.0469 C   0  0  0  0  0  0  0  0  0  0  0  0
    3.1510    1.1995   -0.1180 C   0  0  0  0  0  0  0  0  0  0  0  0
    4.5701    1.2261   -0.2480 C   0  0  0  0  0  0  0  0  0  0  0  0
    5.2622   -0.0194   -0.3005 C   0  0  0  0  0  0  0  0  0  0  0  0
    6.6032   -0.0456   -0.4220 O   0  0  0  0  0  0  0  0  0  0  0  0
    4.6009   -1.2750   -0.2311 C   0  0  0  0  0  0  0  0  0  0  0  0
    3.1786   -1.2838   -0.1001 C   0  0  0  0  0  0  0  0  0  0  0  0
    0.5386    0.9317    0.1781 H   0  0  0  0  0  0  0  0  0  0  0  0
    0.6615   -0.6866    0.9395 H   0  0  0  0  0  0  0  0  0  0  0  0
    0.5176   -0.5590   -0.8130 H   0  0  0  0  0  0  0  0  0  0  0  0
    2.5882    2.1333   -0.0739 H   0  0  0  0  0  0  0  0  0  0  0  0
    5.1201    2.1688   -0.3050 H   0  0  0  0  0  0  0  0  0  0  0  0
    6.9386    0.8635   -0.4649 H   0  0  0  0  0  0  0  0  0  0  0  0
    5.1908   -2.1901   -0.2801 H   0  0  0  0  0  0  0  0  0  0  0  0
    2.6363   -2.2287   -0.0433 H   0  0  0  0  0  0  0  0  0  0  0  0
  1  2  1  0
  1  9  1  0
  1 10  1  0
  1 11  1  0
  2  3  2  0
  2  8  1  0
  3  4  1  0
  3 12  1  0
  4  5  2  0
  4 13  1  0
  5  6  1  0
  5  7  1  0
  6 14  1  0
  7  8  2  0
  7 15  1  0
  8 16  1  0
M  END

