
     RDKit          3D

 20 19  0  0  0  0  0  0  0  0999 V2000
    1.0013   -0.1262    0.0558 C   0  0  0  0  0  0  0  0  0  0  0  0
    2.5412   -0.0883    0.0010 C   0  0  0  0  0  0  0  0  0  0  0  0
    2.9750   -0.9798    1.2496 C   0  0  0  0  0  0  0  0  0  0  0  0
    4.5182   -0.8684    1.0930 C   0  0  0  0  0  0  0  0  0  0  0  0
    4.9520   -1.7600    2.3415 C   0  0  0  0  0  0  0  0  0  0  0  0
    6.4920   -1.7220    2.2869 C   0  0  0  0  0  0  0  0  0  0  0  0
    0.6683    0.4884   -0.8070 H   0  0  0  0  0  0  0  0  0  0  0  0
    0.6164    0.3299    0.9816 H   0  0  0  0  0  0  0  0  0  0  0  0
    0.6151   -1.1498   -0.0722 H   0  0  0  0  0  0  0  0  0  0  0  0
    2.9185    0.9390    0.1438 H   0  0  0  0  0  0  0  0  0  0  0  0
    2.9178   -0.5571   -0.9244 H   0  0  0  0  0  0  0  0  0  0  0  0
    2.6339   -2.0205    1.0931 H   0  0  0  0  0  0  0  0  0  0  0  0
    2.6339   -0.4938    2.1830 H   0  0  0  0  0  0  0  0  0  0  0  0
    4.8593    0.1722    1.2496 H   0  0  0  0  0  0  0  0  0  0  0  0
    4.8593   -1.3544    0.1596 H   0  0  0  0  0  0  0  0  0  0  0  0
    4.5747   -2.7873    2.1988 H   0  0  0  0  0  0  0  0  0  0  0  0
    4.5754   -1.2913    3.2670 H   0  0  0  0  0  0  0  0  0  0  0  0
    6.8769   -2.1781    1.3611 H   0  0  0  0  0  0  0  0  0  0  0  0
    6.8249   -2.3367    3.1496 H   0  0  0  0  0  0  0  0  0  0  0  0
    6.8781   -0.6984    2.4149 H   0  0  0  0  0  0  0  0  0  0  0  0
  1  2  1  0
  1  7  1  0
  1  8  1  0
  1  9  1  0
  2  3  1  0
  2 10  1  0
  2 11  1  0
  3  4  1  0
  3 12  1  0
  3 13  1  0
  4  5  1  0
  4 14  1  0
  4 15  1  0
  5  6  1  0
  5 16  1  0
  5 17  1  0
  6 18  1  0
  6 19  1  0
  6 20  1  0
M  END

