
     RDKit          3D

 62 69  0  0  0  0  0  0  0  0999 V2000
    1.1475   -0.2217   -0.1482 N   0  0  0  0  0  0  0  0  0  0  0  0
    2.2884    0.0044   -0.1639 C   0  0  0  0  0  0  0  0  0  0  0  0
    3.7006    0.2400   -0.2050 C   0  0  0  0  0  0  0  0  0  0  0  0
    4.2152    1.4877   -0.6483 C   0  0  0  0  0  0  0  0  0  0  0  0
    3.4123    2.6109   -0.9269 N   0  0  0  0  0  0  0  0  0  0  0  0
    2.2405    2.9516   -0.1268 C   0  0  0  0  0  0  0  0  0  0  0  0
    2.0830    4.4751   -0.0352 C   0  0  0  0  0  0  0  0  0  0  0  0
    2.0275    5.1085   -1.4297 C   0  0  0  0  0  0  0  0  0  0  0  0
    3.2458    4.6889   -2.2600 C   0  0  0  0  0  0  0  0  0  0  0  0
    3.3968    3.1649   -2.2780 C   0  0  0  0  0  0  0  0  0  0  0  0
    5.6239    1.6318   -0.8135 C   0  0  0  0  0  0  0  0  0  0  0  0
    6.5001    0.5865   -0.5331 C   0  0  0  0  0  0  0  0  0  0  0  0
    7.9756    0.7141   -0.7254 C   0  0  0  0  0  0  0  0  0  0  0  0
    8.5289    0.5359   -2.0053 C   0  0  0  0  0  0  0  0  0  0  0  0
    9.8941    0.6281   -2.2208 C   0  0  0  0  0  0  0  0  0  0  0  0
   10.7932    0.9134   -1.1541 C   0  0  0  0  0  0  0  0  0  0  0  0
   12.1970    0.9966   -1.3527 C   0  0  0  0  0  0  0  0  0  0  0  0
   13.0501    1.2759   -0.3016 C   0  0  0  0  0  0  0  0  0  0  0  0
   12.5433    1.4926    1.0114 C   0  0  0  0  0  0  0  0  0  0  0  0
   13.3958    1.7809    2.1096 C   0  0  0  0  0  0  0  0  0  0  0  0
   12.8770    1.9882    3.3872 C   0  0  0  0  0  0  0  0  0  0  0  0
   11.5009    1.9138    3.6041 C   0  0  0  0  0  0  0  0  0  0  0  0
   10.6069    1.6276    2.5396 C   0  0  0  0  0  0  0  0  0  0  0  0
    9.2005    1.5415    2.7329 C   0  0  0  0  0  0  0  0  0  0  0  0
    8.3501    1.2510    1.6806 C   0  0  0  0  0  0  0  0  0  0  0  0
    8.8508    1.0304    0.3713 C   0  0  0  0  0  0  0  0  0  0  0  0
   10.2576    1.1211    0.1499 C   0  0  0  0  0  0  0  0  0  0  0  0
   11.1344    1.4148    1.2302 C   0  0  0  0  0  0  0  0  0  0  0  0
    5.9931   -0.6275   -0.0526 C   0  0  0  0  0  0  0  0  0  0  0  0
    4.5890   -0.8193    0.1290 C   0  0  0  0  0  0  0  0  0  0  0  0
    4.4091   -2.1736    0.6232 C   0  0  0  0  0  0  0  0  0  0  0  0
    3.2696   -2.9173    0.9768 C   0  0  0  0  0  0  0  0  0  0  0  0
    3.4236   -4.2274    1.4297 C   0  0  0  0  0  0  0  0  0  0  0  0
    4.7060   -4.8169    1.5376 C   0  0  0  0  0  0  0  0  0  0  0  0
    5.8471   -4.0999    1.1939 C   0  0  0  0  0  0  0  0  0  0  0  0
    5.7142   -2.7787    0.7348 C   0  0  0  0  0  0  0  0  0  0  0  0
    6.7400   -1.8320    0.3126 C   0  0  0  0  0  0  0  0  0  0  0  0
    7.9921   -1.9520    0.2606 O   0  0  0  0  0  0  0  0  0  0  0  0
    2.3624    2.5208    0.8774 H   0  0  0  0  0  0  0  0  0  0  0  0
    1.3109    2.5176   -0.5468 H   0  0  0  0  0  0  0  0  0  0  0  0
    2.9371    4.8921    0.5273 H   0  0  0  0  0  0  0  0  0  0  0  0
    1.1693    4.7115    0.5360 H   0  0  0  0  0  0  0  0  0  0  0  0
    1.9646    6.2073   -1.3585 H   0  0  0  0  0  0  0  0  0  0  0  0
    1.1067    4.7742   -1.9429 H   0  0  0  0  0  0  0  0  0  0  0  0
    4.1590    5.1335   -1.8255 H   0  0  0  0  0  0  0  0  0  0  0  0
    3.1617    5.0631   -3.2946 H   0  0  0  0  0  0  0  0  0  0  0  0
    4.3220    2.8736   -2.7951 H   0  0  0  0  0  0  0  0  0  0  0  0
    2.5576    2.7248   -2.8628 H   0  0  0  0  0  0  0  0  0  0  0  0
    6.0024    2.6046   -1.1333 H   0  0  0  0  0  0  0  0  0  0  0  0
    7.8594    0.2972   -2.8321 H   0  0  0  0  0  0  0  0  0  0  0  0
   10.3009    0.4698   -3.2229 H   0  0  0  0  0  0  0  0  0  0  0  0
   12.6000    0.8323   -2.3548 H   0  0  0  0  0  0  0  0  0  0  0  0
   14.1281    1.3320   -0.4700 H   0  0  0  0  0  0  0  0  0  0  0  0
   14.4739    1.8378    1.9404 H   0  0  0  0  0  0  0  0  0  0  0  0
   13.5488    2.2071    4.2194 H   0  0  0  0  0  0  0  0  0  0  0  0
   11.0946    2.0737    4.6057 H   0  0  0  0  0  0  0  0  0  0  0  0
    8.7921    1.7002    3.7335 H   0  0  0  0  0  0  0  0  0  0  0  0
    7.2765    1.1752    1.8490 H   0  0  0  0  0  0  0  0  0  0  0  0
    2.2715   -2.4830    0.8976 H   0  0  0  0  0  0  0  0  0  0  0  0
    2.5392   -4.8084    1.7033 H   0  0  0  0  0  0  0  0  0  0  0  0
    4.7948   -5.8472    1.8936 H   0  0  0  0  0  0  0  0  0  0  0  0
    6.8431   -4.5436    1.2707 H   0  0  0  0  0  0  0  0  0  0  0  0
  1  2  3  0
  2  3  1  0
  3  4  2  0
  3 30  1  0
  4  5  1  0
  4 11  1  0
  5  6  1  0
  5 10  1  0
  6  7  1  0
  6 39  1  0
  6 40  1  0
  7  8  1  0
  7 41  1  0
  7 42  1  0
  8  9  1  0
  8 43  1  0
  8 44  1  0
  9 10  1  0
  9 45  1  0
  9 46  1  0
 10 47  1  0
 10 48  1  0
 11 12  2  0
 11 49  1  0
 12 13  1  0
 12 29  1  0
 13 14  2  0
 13 26  1  0
 14 15  1  0
 14 50  1  0
 15 16  2  0
 15 51  1  0
 16 17  1  0
 16 27  1  0
 17 18  2  0
 17 52  1  0
 18 19  1  0
 18 53  1  0
 19 20  2  0
 19 28  1  0
 20 21  1  0
 20 54  1  0
 21 22  2  0
 21 55  1  0
 22 23  1  0
 22 56  1  0
 23 24  2  0
 23 28  1  0
 24 25  1  0
 24 57  1  0
 25 26  2  0
 25 58  1  0
 26 27  1  0
 27 28  2  0
 29 30  2  0
 29 37  1  0
 30 31  1  0
 31 32  2  0
 31 36  1  0
 32 33  1  0
 32 59  1  0
 33 34  2  0
 33 60  1  0
 34 35  1  0
 34 61  1  0
 35 36  2  0
 35 62  1  0
 36 37  1  0
 37 38  2  0
M  END

