
     RDKit          3D

 68 74  0  0  0  0  0  0  0  0999 V2000
    7.2344   -1.7127    3.4051 C   0  0  0  0  0  0  0  0  0  0  0  0
    6.1159   -1.2919    2.4805 C   0  0  0  0  0  0  0  0  0  0  0  0
    4.7712   -1.3781    2.9134 C   0  0  0  0  0  0  0  0  0  0  0  0
    3.6999   -1.0056    2.1039 C   0  0  0  0  0  0  0  0  0  0  0  0
    3.9855   -0.5348    0.8165 C   0  0  0  0  0  0  0  0  0  0  0  0
    5.3227   -0.4305    0.3523 C   0  0  0  0  0  0  0  0  0  0  0  0
    6.3788   -0.8128    1.1940 C   0  0  0  0  0  0  0  0  0  0  0  0
    5.2540    0.0964   -0.9974 C   0  0  0  0  0  0  0  0  0  0  0  0
    6.2177    0.4011   -1.9711 C   0  0  0  0  0  0  0  0  0  0  0  0
    5.8264    0.8842   -3.2231 C   0  0  0  0  0  0  0  0  0  0  0  0
    6.8442    1.2234   -4.2869 C   0  0  0  0  0  0  0  0  0  0  0  0
    4.4460    1.0498   -3.4875 C   0  0  0  0  0  0  0  0  0  0  0  0
    3.4639    0.7569   -2.5430 C   0  0  0  0  0  0  0  0  0  0  0  0
    3.8784    0.2892   -1.2898 C   0  0  0  0  0  0  0  0  0  0  0  0
    3.1161   -0.0861   -0.1817 N   0  0  0  0  0  0  0  0  0  0  0  0
    1.6953   -0.0647   -0.0962 C   0  0  0  0  0  0  0  0  0  0  0  0
    0.9954   -1.2804   -0.0817 C   0  0  0  0  0  0  0  0  0  0  0  0
   -0.3932   -1.3000    0.0041 C   0  0  0  0  0  0  0  0  0  0  0  0
   -1.1064   -0.0920    0.0689 C   0  0  0  0  0  0  0  0  0  0  0  0
   -2.5904   -0.0953    0.1543 C   0  0  0  0  0  0  0  0  0  0  0  0
   -3.2242    1.0829    0.2058 N   0  0  0  0  0  0  0  0  0  0  0  0
   -4.5609    1.0352    0.2830 C   0  0  0  0  0  0  0  0  0  0  0  0
   -5.3071    2.3189    0.3435 C   0  0  0  0  0  0  0  0  0  0  0  0
   -4.6192    3.5449    0.3158 C   0  0  0  0  0  0  0  0  0  0  0  0
   -5.3215    4.7489    0.3720 C   0  0  0  0  0  0  0  0  0  0  0  0
   -6.7180    4.7444    0.4571 C   0  0  0  0  0  0  0  0  0  0  0  0
   -7.4101    3.5287    0.4854 C   0  0  0  0  0  0  0  0  0  0  0  0
   -6.7106    2.3231    0.4290 C   0  0  0  0  0  0  0  0  0  0  0  0
   -5.2616   -0.1057    0.3080 N   0  0  0  0  0  0  0  0  0  0  0  0
   -4.5539   -1.2412    0.2516 C   0  0  0  0  0  0  0  0  0  0  0  0
   -5.2917   -2.5308    0.2752 C   0  0  0  0  0  0  0  0  0  0  0  0
   -6.6957   -2.5466    0.3511 C   0  0  0  0  0  0  0  0  0  0  0  0
   -7.3871   -3.7580    0.3727 C   0  0  0  0  0  0  0  0  0  0  0  0
   -6.6863   -4.9679    0.3191 C   0  0  0  0  0  0  0  0  0  0  0  0
   -5.2892   -4.9608    0.2436 C   0  0  0  0  0  0  0  0  0  0  0  0
   -4.5950   -3.7510    0.2217 C   0  0  0  0  0  0  0  0  0  0  0  0
   -3.2170   -1.2783    0.1751 N   0  0  0  0  0  0  0  0  0  0  0  0
   -0.3968    1.1193    0.0598 C   0  0  0  0  0  0  0  0  0  0  0  0
    1.0008    1.1634   -0.0136 C   0  0  0  0  0  0  0  0  0  0  0  0
    1.7335    2.4809    0.0231 C   0  0  0  0  0  0  0  0  0  0  0  0
    7.2333   -1.1214    4.3367 H   0  0  0  0  0  0  0  0  0  0  0  0
    7.1392   -2.7719    3.6990 H   0  0  0  0  0  0  0  0  0  0  0  0
    8.2191   -1.5859    2.9312 H   0  0  0  0  0  0  0  0  0  0  0  0
    4.5644   -1.7496    3.9216 H   0  0  0  0  0  0  0  0  0  0  0  0
    2.6724   -1.0803    2.4647 H   0  0  0  0  0  0  0  0  0  0  0  0
    7.4119   -0.7349    0.8435 H   0  0  0  0  0  0  0  0  0  0  0  0
    7.2793    0.2556   -1.7520 H   0  0  0  0  0  0  0  0  0  0  0  0
    6.7948    2.2891   -4.5689 H   0  0  0  0  0  0  0  0  0  0  0  0
    7.8694    1.0173   -3.9449 H   0  0  0  0  0  0  0  0  0  0  0  0
    6.6757    0.6409   -5.2086 H   0  0  0  0  0  0  0  0  0  0  0  0
    4.1377    1.4167   -4.4711 H   0  0  0  0  0  0  0  0  0  0  0  0
    2.4050    0.8796   -2.7798 H   0  0  0  0  0  0  0  0  0  0  0  0
    1.5600   -2.2128   -0.1469 H   0  0  0  0  0  0  0  0  0  0  0  0
   -0.9403   -2.2425    0.0117 H   0  0  0  0  0  0  0  0  0  0  0  0
   -3.5311    3.5346    0.2496 H   0  0  0  0  0  0  0  0  0  0  0  0
   -4.7777    5.6967    0.3497 H   0  0  0  0  0  0  0  0  0  0  0  0
   -7.2672    5.6886    0.5013 H   0  0  0  0  0  0  0  0  0  0  0  0
   -8.5010    3.5213    0.5517 H   0  0  0  0  0  0  0  0  0  0  0  0
   -7.2377    1.3690    0.4504 H   0  0  0  0  0  0  0  0  0  0  0  0
   -7.2296   -1.5970    0.3925 H   0  0  0  0  0  0  0  0  0  0  0  0
   -8.4784   -3.7598    0.4315 H   0  0  0  0  0  0  0  0  0  0  0  0
   -7.2292   -5.9166    0.3361 H   0  0  0  0  0  0  0  0  0  0  0  0
   -4.7386   -5.9040    0.2015 H   0  0  0  0  0  0  0  0  0  0  0  0
   -3.5066   -3.7316    0.1634 H   0  0  0  0  0  0  0  0  0  0  0  0
   -0.9625    2.0493    0.1284 H   0  0  0  0  0  0  0  0  0  0  0  0
    2.5723    2.4510    0.7357 H   0  0  0  0  0  0  0  0  0  0  0  0
    1.0564    3.2955    0.3168 H   0  0  0  0  0  0  0  0  0  0  0  0
    2.1648    2.7369   -0.9585 H   0  0  0  0  0  0  0  0  0  0  0  0
  1  2  1  0
  1 41  1  0
  1 42  1  0
  1 43  1  0
  2  3  2  0
  2  7  1  0
  3  4  1  0
  3 44  1  0
  4  5  2  0
  4 45  1  0
  5  6  1  0
  5 15  1  0
  6  7  2  0
  6  8  1  0
  7 46  1  0
  8  9  2  0
  8 14  1  0
  9 10  1  0
  9 47  1  0
 10 11  1  0
 10 12  2  0
 11 48  1  0
 11 49  1  0
 11 50  1  0
 12 13  1  0
 12 51  1  0
 13 14  2  0
 13 52  1  0
 14 15  1  0
 15 16  1  0
 16 17  2  0
 16 39  1  0
 17 18  1  0
 17 53  1  0
 18 19  2  0
 18 54  1  0
 19 20  1  0
 19 38  1  0
 20 21  2  0
 20 37  1  0
 21 22  1  0
 22 23  1  0
 22 29  2  0
 23 24  2  0
 23 28  1  0
 24 25  1  0
 24 55  1  0
 25 26  2  0
 25 56  1  0
 26 27  1  0
 26 57  1  0
 27 28  2  0
 27 58  1  0
 28 59  1  0
 29 30  1  0
 30 31  1  0
 30 37  2  0
 31 32  2  0
 31 36  1  0
 32 33  1  0
 32 60  1  0
 33 34  2  0
 33 61  1  0
 34 35  1  0
 34 62  1  0
 35 36  2  0
 35 63  1  0
 36 64  1  0
 38 39  2  0
 38 65  1  0
 39 40  1  0
 40 66  1  0
 40 67  1  0
 40 68  1  0
M  END

