
     RDKit          3D

 67 77  0  0  0  0  0  0  0  0999 V2000
   -1.0020   -2.2708   -0.9488 C   0  0  0  0  0  0  0  0  0  0  0  0
   -0.8187   -1.1565   -1.7806 C   0  0  0  0  0  0  0  0  0  0  0  0
   -0.2001    0.0015   -1.2943 C   0  0  0  0  0  0  0  0  0  0  0  0
    0.2315    0.0275    0.0296 C   0  0  0  0  0  0  0  0  0  0  0  0
    0.0495   -1.0925    0.8700 C   0  0  0  0  0  0  0  0  0  0  0  0
   -0.5701   -2.2478    0.3808 C   0  0  0  0  0  0  0  0  0  0  0  0
    0.5963   -0.7777    2.1965 C   0  0  0  0  0  0  0  0  0  0  0  0
    0.6608   -1.5384    3.3692 C   0  0  0  0  0  0  0  0  0  0  0  0
    1.2461   -0.9756    4.5074 C   0  0  0  0  0  0  0  0  0  0  0  0
    1.7610    0.3288    4.4772 C   0  0  0  0  0  0  0  0  0  0  0  0
    1.6973    1.0932    3.3060 C   0  0  0  0  0  0  0  0  0  0  0  0
    1.1149    0.5353    2.1705 C   0  0  0  0  0  0  0  0  0  0  0  0
    0.9112    1.1682    0.7914 C   0  0  2  0  0  0  0  0  0  0  0  0
    0.0460    2.4522    0.8461 C   0  0  0  0  0  0  0  0  0  0  0  0
   -1.2378    2.6049    1.3413 C   0  0  0  0  0  0  0  0  0  0  0  0
   -1.8490    3.8734    1.2968 C   0  0  0  0  0  0  0  0  0  0  0  0
   -1.1634    4.9840    0.7530 C   0  0  0  0  0  0  0  0  0  0  0  0
    0.1249    4.8646    0.2485 C   0  0  0  0  0  0  0  0  0  0  0  0
    0.7488    3.5901    0.2892 C   0  0  0  0  0  0  0  0  0  0  0  0
    2.0026    3.0987   -0.1136 C   0  0  0  0  0  0  0  0  0  0  0  0
    3.1063    3.6688   -0.7042 O   0  0  0  0  0  0  0  0  0  0  0  0
    3.9840    2.6163   -0.8210 C   0  0  0  0  0  0  0  0  0  0  0  0
    3.4514    1.4007   -0.3150 C   0  0  0  0  0  0  0  0  0  0  0  0
    2.1731    1.7120    0.1412 C   0  0  0  0  0  0  0  0  0  0  0  0
    4.4829    0.2977   -0.4869 C   0  0  2  0  0  0  0  0  0  0  0  0
    4.0244   -0.8907   -1.3361 C   0  0  0  0  0  0  0  0  0  0  0  0
    3.5074   -0.8875   -2.6293 C   0  0  0  0  0  0  0  0  0  0  0  0
    3.1690   -2.1087   -3.2244 C   0  0  0  0  0  0  0  0  0  0  0  0
    3.3478   -3.3147   -2.5308 C   0  0  0  0  0  0  0  0  0  0  0  0
    3.8659   -3.3211   -1.2322 C   0  0  0  0  0  0  0  0  0  0  0  0
    4.2039   -2.1023   -0.6336 C   0  0  0  0  0  0  0  0  0  0  0  0
    4.7531   -1.7976    0.6943 C   0  0  0  0  0  0  0  0  0  0  0  0
    5.1031   -2.6346    1.7596 C   0  0  0  0  0  0  0  0  0  0  0  0
    5.6092   -2.0616    2.9303 C   0  0  0  0  0  0  0  0  0  0  0  0
    5.7652   -0.6718    3.0381 C   0  0  0  0  0  0  0  0  0  0  0  0
    5.4176    0.1687    1.9737 C   0  0  0  0  0  0  0  0  0  0  0  0
    4.9120   -0.3991    0.8068 C   0  0  0  0  0  0  0  0  0  0  0  0
    5.6376    1.0917   -1.1478 C   0  0  0  0  0  0  0  0  0  0  0  0
    6.8793    0.6301   -1.5497 C   0  0  0  0  0  0  0  0  0  0  0  0
    7.7931    1.5272   -2.1366 C   0  0  0  0  0  0  0  0  0  0  0  0
    7.4514    2.8874   -2.3164 C   0  0  0  0  0  0  0  0  0  0  0  0
    6.2147    3.3822   -1.9235 C   0  0  0  0  0  0  0  0  0  0  0  0
    5.2874    2.4854   -1.3306 C   0  0  0  0  0  0  0  0  0  0  0  0
   -1.4878   -3.1663   -1.3449 H   0  0  0  0  0  0  0  0  0  0  0  0
   -1.1624   -1.1929   -2.8174 H   0  0  0  0  0  0  0  0  0  0  0  0
   -0.0615    0.8703   -1.9425 H   0  0  0  0  0  0  0  0  0  0  0  0
   -0.7150   -3.1197    1.0236 H   0  0  0  0  0  0  0  0  0  0  0  0
    0.2622   -2.5555    3.3985 H   0  0  0  0  0  0  0  0  0  0  0  0
    1.3037   -1.5576    5.4308 H   0  0  0  0  0  0  0  0  0  0  0  0
    2.2155    0.7518    5.3766 H   0  0  0  0  0  0  0  0  0  0  0  0
    2.0957    2.1106    3.2847 H   0  0  0  0  0  0  0  0  0  0  0  0
   -1.7739    1.7507    1.7632 H   0  0  0  0  0  0  0  0  0  0  0  0
   -2.8620    3.9998    1.6860 H   0  0  0  0  0  0  0  0  0  0  0  0
   -1.6601    5.9578    0.7303 H   0  0  0  0  0  0  0  0  0  0  0  0
    0.6499    5.7256   -0.1698 H   0  0  0  0  0  0  0  0  0  0  0  0
    3.3707    0.0511   -3.1720 H   0  0  0  0  0  0  0  0  0  0  0  0
    2.7618   -2.1232   -4.2385 H   0  0  0  0  0  0  0  0  0  0  0  0
    3.0784   -4.2589   -3.0110 H   0  0  0  0  0  0  0  0  0  0  0  0
    4.0010   -4.2638   -0.6961 H   0  0  0  0  0  0  0  0  0  0  0  0
    4.9834   -3.7182    1.6825 H   0  0  0  0  0  0  0  0  0  0  0  0
    5.8865   -2.7029    3.7709 H   0  0  0  0  0  0  0  0  0  0  0  0
    6.1622   -0.2419    3.9612 H   0  0  0  0  0  0  0  0  0  0  0  0
    5.5426    1.2511    2.0567 H   0  0  0  0  0  0  0  0  0  0  0  0
    7.1501   -0.4203   -1.4135 H   0  0  0  0  0  0  0  0  0  0  0  0
    8.7745    1.1683   -2.4558 H   0  0  0  0  0  0  0  0  0  0  0  0
    8.1783    3.5634   -2.7748 H   0  0  0  0  0  0  0  0  0  0  0  0
    5.9565    4.4337   -2.0639 H   0  0  0  0  0  0  0  0  0  0  0  0
  1  2  2  0
  1  6  1  0
  1 44  1  0
  2  3  1  0
  2 45  1  0
  3  4  2  0
  3 46  1  0
  4  5  1  0
 13  4  1  6
  5  6  2  0
  5  7  1  0
  6 47  1  0
  7  8  2  0
  7 12  1  0
  8  9  1  0
  8 48  1  0
  9 10  2  0
  9 49  1  0
 10 11  1  0
 10 50  1  0
 11 12  2  0
 11 51  1  0
 12 13  1  0
 13 14  1  0
 13 24  1  0
 14 15  2  0
 14 19  1  0
 15 16  1  0
 15 52  1  0
 16 17  2  0
 16 53  1  0
 17 18  1  0
 17 54  1  0
 18 19  2  0
 18 55  1  0
 19 20  1  0
 20 21  1  0
 20 24  2  0
 21 22  1  0
 22 23  2  0
 22 43  1  0
 23 24  1  0
 25 23  1  1
 25 26  1  0
 25 37  1  0
 25 38  1  0
 26 27  2  0
 26 31  1  0
 27 28  1  0
 27 56  1  0
 28 29  2  0
 28 57  1  0
 29 30  1  0
 29 58  1  0
 30 31  2  0
 30 59  1  0
 31 32  1  0
 32 33  2  0
 32 37  1  0
 33 34  1  0
 33 60  1  0
 34 35  2  0
 34 61  1  0
 35 36  1  0
 35 62  1  0
 36 37  2  0
 36 63  1  0
 38 39  1  0
 38 43  2  0
 39 40  2  0
 39 64  1  0
 40 41  1  0
 40 65  1  0
 41 42  2  0
 41 66  1  0
 42 43  1  0
 42 67  1  0
M  END

