
     RDKit          3D

 21 22  0  0  0  0  0  0  0  0999 V2000
    0.9466   -0.0362    0.0384 C   0  0  0  0  0  0  0  0  0  0  0  0
    2.4412   -0.1133   -0.0381 C   0  0  0  0  0  0  0  0  0  0  0  0
    3.1273   -1.3171   -0.0656 C   0  0  0  0  0  0  0  0  0  0  0  0
    4.5511   -1.3296   -0.1380 C   0  0  0  0  0  0  0  0  0  0  0  0
    5.3142   -0.1340   -0.1834 C   0  0  0  0  0  0  0  0  0  0  0  0
    6.7276   -0.1215   -0.2551 C   0  0  0  0  0  0  0  0  0  0  0  0
    7.4637    1.1056   -0.2991 C   0  0  0  0  0  0  0  0  0  0  0  0
    6.7964    2.3154   -0.2722 C   0  0  0  0  0  0  0  0  0  0  0  0
    5.3688    2.3297   -0.2000 C   0  0  0  0  0  0  0  0  0  0  0  0
    4.6162    1.1280   -0.1555 C   0  0  0  0  0  0  0  0  0  0  0  0
    3.2026    1.1109   -0.0840 C   0  0  0  0  0  0  0  0  0  0  0  0
    0.4831   -1.0327    0.0640 H   0  0  0  0  0  0  0  0  0  0  0  0
    0.5333    0.5174   -0.8251 H   0  0  0  0  0  0  0  0  0  0  0  0
    0.6240    0.5201    0.9382 H   0  0  0  0  0  0  0  0  0  0  0  0
    2.5799   -2.2619   -0.0319 H   0  0  0  0  0  0  0  0  0  0  0  0
    5.0785   -2.2873   -0.1591 H   0  0  0  0  0  0  0  0  0  0  0  0
    7.2664   -1.0724   -0.2772 H   0  0  0  0  0  0  0  0  0  0  0  0
    8.5545    1.0729   -0.3538 H   0  0  0  0  0  0  0  0  0  0  0  0
    7.3472    3.2578   -0.3053 H   0  0  0  0  0  0  0  0  0  0  0  0
    4.8371    3.2847   -0.1782 H   0  0  0  0  0  0  0  0  0  0  0  0
    2.6651    2.0637   -0.0628 H   0  0  0  0  0  0  0  0  0  0  0  0
  1  2  1  0
  1 12  1  0
  1 13  1  0
  1 14  1  0
  2  3  2  0
  2 11  1  0
  3  4  1  0
  3 15  1  0
  4  5  2  0
  4 16  1  0
  5  6  1  0
  5 10  1  0
  6  7  2  0
  6 17  1  0
  7  8  1  0
  7 18  1  0
  8  9  2  0
  8 19  1  0
  9 10  1  0
  9 20  1  0
 10 11  2  0
 11 21  1  0
M  END

