
     RDKit          3D

 46 51  0  0  0  0  0  0  0  0999 V2000
    0.8367   -0.0025   -0.0964 C   0  0  0  0  0  0  0  0  0  0  0  0
   -0.5259    0.0058   -0.0956 C   0  0  0  0  0  0  0  0  0  0  0  0
   -1.7534    0.0126   -0.0951 C   0  0  0  0  0  0  0  0  0  0  0  0
   -3.1728    0.0425   -0.0947 C   0  0  0  0  0  0  0  0  0  0  0  0
   -3.8416    1.2880   -0.0969 C   0  0  0  0  0  0  0  0  0  0  0  0
   -5.2269    1.3617   -0.0969 C   0  0  0  0  0  0  0  0  0  0  0  0
   -6.0167    0.1948   -0.0948 C   0  0  0  0  0  0  0  0  0  0  0  0
   -7.4523    0.2423   -0.0949 C   0  0  0  0  0  0  0  0  0  0  0  0
   -8.2002   -0.9000   -0.0929 C   0  0  0  0  0  0  0  0  0  0  0  0
   -7.5803   -2.1977   -0.0906 C   0  0  0  0  0  0  0  0  0  0  0  0
   -8.3307   -3.3882   -0.0886 C   0  0  0  0  0  0  0  0  0  0  0  0
   -7.6975   -4.6323   -0.0864 C   0  0  0  0  0  0  0  0  0  0  0  0
   -6.3047   -4.7179   -0.0861 C   0  0  0  0  0  0  0  0  0  0  0  0
   -5.5119   -3.5548   -0.0881 C   0  0  0  0  0  0  0  0  0  0  0  0
   -4.0756   -3.6017   -0.0880 C   0  0  0  0  0  0  0  0  0  0  0  0
   -3.3250   -2.4612   -0.0901 C   0  0  0  0  0  0  0  0  0  0  0  0
   -3.9384   -1.1624   -0.0924 C   0  0  0  0  0  0  0  0  0  0  0  0
   -5.3658   -1.0798   -0.0925 C   0  0  0  0  0  0  0  0  0  0  0  0
   -6.1512   -2.2757   -0.0904 C   0  0  0  0  0  0  0  0  0  0  0  0
    2.0637   -0.0130   -0.0973 C   0  0  0  0  0  0  0  0  0  0  0  0
    3.4855   -0.0388   -0.0986 C   0  0  0  0  0  0  0  0  0  0  0  0
    4.1571   -1.2625   -0.0997 C   0  0  0  0  0  0  0  0  0  0  0  0
    5.5663   -1.3196   -0.1012 C   0  0  0  0  0  0  0  0  0  0  0  0
    6.3129   -0.1589   -0.1016 C   0  0  0  0  0  0  0  0  0  0  0  0
    5.6786    1.1145   -0.1006 C   0  0  0  0  0  0  0  0  0  0  0  0
    6.4307    2.3233   -0.1011 C   0  0  0  0  0  0  0  0  0  0  0  0
    5.8018    3.5501   -0.1001 C   0  0  0  0  0  0  0  0  0  0  0  0
    4.3868    3.6214   -0.0985 C   0  0  0  0  0  0  0  0  0  0  0  0
    3.6281    2.4684   -0.0980 C   0  0  0  0  0  0  0  0  0  0  0  0
    4.2458    1.1890   -0.0990 C   0  0  0  0  0  0  0  0  0  0  0  0
   -3.2446    2.2019   -0.0988 H   0  0  0  0  0  0  0  0  0  0  0  0
   -5.7189    2.3378   -0.0987 H   0  0  0  0  0  0  0  0  0  0  0  0
   -7.9389    1.2213   -0.0966 H   0  0  0  0  0  0  0  0  0  0  0  0
   -9.2922   -0.8451   -0.0930 H   0  0  0  0  0  0  0  0  0  0  0  0
   -9.4223   -3.3282   -0.0887 H   0  0  0  0  0  0  0  0  0  0  0  0
   -8.2973   -5.5460   -0.0848 H   0  0  0  0  0  0  0  0  0  0  0  0
   -5.8146   -5.6951   -0.0844 H   0  0  0  0  0  0  0  0  0  0  0  0
   -3.5867   -4.5796   -0.0863 H   0  0  0  0  0  0  0  0  0  0  0  0
   -2.2349   -2.5192   -0.0900 H   0  0  0  0  0  0  0  0  0  0  0  0
    3.5744   -2.1856   -0.0995 H   0  0  0  0  0  0  0  0  0  0  0  0
    6.0627   -2.2931   -0.1021 H   0  0  0  0  0  0  0  0  0  0  0  0
    7.4053   -0.2027   -0.1028 H   0  0  0  0  0  0  0  0  0  0  0  0
    7.5223    2.2602   -0.1023 H   0  0  0  0  0  0  0  0  0  0  0  0
    6.3919    4.4700   -0.1005 H   0  0  0  0  0  0  0  0  0  0  0  0
    3.8940    4.5969   -0.0978 H   0  0  0  0  0  0  0  0  0  0  0  0
    2.5379    2.5258   -0.0969 H   0  0  0  0  0  0  0  0  0  0  0  0
  1  2  1  0
  1 20  3  0
  2  3  3  0
  3  4  1  0
  4  5  2  0
  4 17  1  0
  5  6  1  0
  5 31  1  0
  6  7  2  0
  6 32  1  0
  7  8  1  0
  7 18  1  0
  8  9  2  0
  8 33  1  0
  9 10  1  0
  9 34  1  0
 10 11  2  0
 10 19  1  0
 11 12  1  0
 11 35  1  0
 12 13  2  0
 12 36  1  0
 13 14  1  0
 13 37  1  0
 14 15  2  0
 14 19  1  0
 15 16  1  0
 15 38  1  0
 16 17  2  0
 16 39  1  0
 17 18  1  0
 18 19  2  0
 20 21  1  0
 21 22  2  0
 21 30  1  0
 22 23  1  0
 22 40  1  0
 23 24  2  0
 23 41  1  0
 24 25  1  0
 24 42  1  0
 25 26  1  0
 25 30  2  0
 26 27  2  0
 26 43  1  0
 27 28  1  0
 27 44  1  0
 28 29  2  0
 28 45  1  0
 29 30  1  0
 29 46  1  0
M  END

