
     RDKit          3D

 76 83  0  0  0  0  0  0  0  0999 V2000
   -0.9378   -0.3809   -0.8651 C   0  0  0  0  0  0  0  0  0  0  0  0
    0.5989   -0.2042   -0.9446 C   0  0  1  0  0  0  0  0  0  0  0  0
    0.9531    1.3003   -0.8505 C   0  0  0  0  0  0  0  0  0  0  0  0
    1.2332   -0.9274    0.2572 C   0  0  0  0  0  0  0  0  0  0  0  0
    1.0978   -0.7538   -2.2885 C   0  0  0  0  0  0  0  0  0  0  0  0
    0.6100   -0.1888   -3.4977 C   0  0  0  0  0  0  0  0  0  0  0  0
    1.0172   -0.6264   -4.7490 C   0  0  0  0  0  0  0  0  0  0  0  0
    1.9552   -1.6764   -4.7979 C   0  0  0  0  0  0  0  0  0  0  0  0
    2.4627   -2.2744   -3.6047 C   0  0  0  0  0  0  0  0  0  0  0  0
    2.0365   -1.8143   -2.3684 C   0  0  0  0  0  0  0  0  0  0  0  0
    3.3856   -3.3220   -4.0437 C   0  0  0  0  0  0  0  0  0  0  0  0
    4.1931   -4.2375   -3.3927 C   0  0  0  0  0  0  0  0  0  0  0  0
    5.0107   -5.1374   -4.1388 C   0  0  0  0  0  0  0  0  0  0  0  0
    5.8977   -6.1400   -3.3851 C   0  0  1  0  0  0  0  0  0  0  0  0
    5.0015   -7.0554   -2.5155 C   0  0  0  0  0  0  0  0  0  0  0  0
    6.7181   -7.0277   -4.3375 C   0  0  0  0  0  0  0  0  0  0  0  0
    6.8805   -5.3635   -2.4748 C   0  0  0  0  0  0  0  0  0  0  0  0
    4.9717   -5.0649   -5.5444 C   0  0  0  0  0  0  0  0  0  0  0  0
    4.1644   -4.1494   -6.2278 C   0  0  0  0  0  0  0  0  0  0  0  0
    3.3718   -3.2836   -5.4663 C   0  0  0  0  0  0  0  0  0  0  0  0
    2.5077   -2.2904   -5.8925 N   0  0  0  0  0  0  0  0  0  0  0  0
    2.2361   -1.9526   -7.2795 C   0  0  0  0  0  0  0  0  0  0  0  0
    1.4607   -2.8446   -8.0378 C   0  0  0  0  0  0  0  0  0  0  0  0
    1.1883   -2.5345   -9.3884 C   0  0  0  0  0  0  0  0  0  0  0  0
    1.7122   -1.3609   -9.8977 C   0  0  0  0  0  0  0  0  0  0  0  0
    1.5578   -0.9166  -11.1671 O   0  0  0  0  0  0  0  0  0  0  0  0
    2.2446    0.2816  -11.2580 C   0  0  0  0  0  0  0  0  0  0  0  0
    2.2647    0.9396  -12.4032 N   0  0  0  0  0  0  0  0  0  0  0  0
    2.9779    2.0637  -12.2939 C   0  0  0  0  0  0  0  0  0  0  0  0
    3.1234    2.8893  -13.3821 O   0  0  0  0  0  0  0  0  0  0  0  0
    3.8924    3.9363  -12.9753 C   0  0  0  0  0  0  0  0  0  0  0  0
    4.2833    5.0080  -13.7629 C   0  0  0  0  0  0  0  0  0  0  0  0
    5.0771    5.9942  -13.1612 C   0  0  0  0  0  0  0  0  0  0  0  0
    5.4521    5.8841  -11.8062 C   0  0  0  0  0  0  0  0  0  0  0  0
    6.3565    6.9273  -11.2121 C   0  0  1  0  0  0  0  0  0  0  0  0
    6.1597    8.1463  -11.7552 F   0  0  0  0  0  0  0  0  0  0  0  0
    6.1865    7.0574   -9.8798 F   0  0  0  0  0  0  0  0  0  0  0  0
    7.6652    6.6387  -11.3984 F   0  0  0  0  0  0  0  0  0  0  0  0
    5.0488    4.7986  -11.0214 C   0  0  0  0  0  0  0  0  0  0  0  0
    4.2539    3.7987  -11.6081 C   0  0  0  0  0  0  0  0  0  0  0  0
    3.6522    2.5684  -11.1616 C   0  0  0  0  0  0  0  0  0  0  0  0
    3.6062    1.8329   -9.9446 C   0  0  0  0  0  0  0  0  0  0  0  0
    2.8516    0.6192  -10.0260 C   0  0  0  0  0  0  0  0  0  0  0  0
    2.5063   -0.4471   -9.1381 C   0  0  0  0  0  0  0  0  0  0  0  0
    2.7666   -0.7617   -7.7856 C   0  0  0  0  0  0  0  0  0  0  0  0
   -1.3103    0.0116    0.0942 H   0  0  0  0  0  0  0  0  0  0  0  0
   -1.2208   -1.4434   -0.9300 H   0  0  0  0  0  0  0  0  0  0  0  0
   -1.4608    0.1576   -1.6692 H   0  0  0  0  0  0  0  0  0  0  0  0
    0.6027    1.7069    0.1112 H   0  0  0  0  0  0  0  0  0  0  0  0
    0.4830    1.8901   -1.6512 H   0  0  0  0  0  0  0  0  0  0  0  0
    2.0415    1.4568   -0.9095 H   0  0  0  0  0  0  0  0  0  0  0  0
    0.8430   -0.4989    1.1924 H   0  0  0  0  0  0  0  0  0  0  0  0
    2.3284   -0.8130    0.2777 H   0  0  0  0  0  0  0  0  0  0  0  0
    0.9952   -2.0025    0.2664 H   0  0  0  0  0  0  0  0  0  0  0  0
   -0.1149    0.6244   -3.4497 H   0  0  0  0  0  0  0  0  0  0  0  0
    0.6352   -0.1790   -5.6661 H   0  0  0  0  0  0  0  0  0  0  0  0
    2.4255   -2.2730   -1.4605 H   0  0  0  0  0  0  0  0  0  0  0  0
    4.2073   -4.2673   -2.3019 H   0  0  0  0  0  0  0  0  0  0  0  0
    4.2927   -7.6242   -3.1374 H   0  0  0  0  0  0  0  0  0  0  0  0
    4.4195   -6.4877   -1.7733 H   0  0  0  0  0  0  0  0  0  0  0  0
    5.6249   -7.7768   -1.9642 H   0  0  0  0  0  0  0  0  0  0  0  0
    6.0750   -7.6328   -4.9949 H   0  0  0  0  0  0  0  0  0  0  0  0
    7.3361   -7.7242   -3.7511 H   0  0  0  0  0  0  0  0  0  0  0  0
    7.3997   -6.4368   -4.9687 H   0  0  0  0  0  0  0  0  0  0  0  0
    6.3593   -4.7477   -1.7261 H   0  0  0  0  0  0  0  0  0  0  0  0
    7.5298   -4.6989   -3.0660 H   0  0  0  0  0  0  0  0  0  0  0  0
    7.5251   -6.0707   -1.9293 H   0  0  0  0  0  0  0  0  0  0  0  0
    5.5886   -5.7378   -6.1373 H   0  0  0  0  0  0  0  0  0  0  0  0
    4.1486   -4.1070   -7.3166 H   0  0  0  0  0  0  0  0  0  0  0  0
    1.0601   -3.7522   -7.5850 H   0  0  0  0  0  0  0  0  0  0  0  0
    0.5847   -3.1944  -10.0133 H   0  0  0  0  0  0  0  0  0  0  0  0
    3.9779    5.0759  -14.8083 H   0  0  0  0  0  0  0  0  0  0  0  0
    5.4019    6.8591  -13.7408 H   0  0  0  0  0  0  0  0  0  0  0  0
    5.3438    4.7371   -9.9729 H   0  0  0  0  0  0  0  0  0  0  0  0
    4.1061    2.1632   -9.0360 H   0  0  0  0  0  0  0  0  0  0  0  0
    3.3791   -0.1103   -7.1600 H   0  0  0  0  0  0  0  0  0  0  0  0
  2  1  1  6
  1 46  1  0
  1 47  1  0
  1 48  1  0
  2  3  1  0
  2  4  1  0
  2  5  1  0
  3 49  1  0
  3 50  1  0
  3 51  1  0
  4 52  1  0
  4 53  1  0
  4 54  1  0
  5  6  2  0
  5 10  1  0
  6  7  1  0
  6 55  1  0
  7  8  2  0
  7 56  1  0
  8  9  1  0
  8 21  1  0
  9 10  2  0
  9 11  1  0
 10 57  1  0
 11 12  2  0
 11 20  1  0
 12 13  1  0
 12 58  1  0
 13 14  1  0
 13 18  2  0
 14 15  1  1
 14 16  1  0
 14 17  1  0
 15 59  1  0
 15 60  1  0
 15 61  1  0
 16 62  1  0
 16 63  1  0
 16 64  1  0
 17 65  1  0
 17 66  1  0
 17 67  1  0
 18 19  1  0
 18 68  1  0
 19 20  2  0
 19 69  1  0
 20 21  1  0
 21 22  1  0
 22 23  2  0
 22 45  1  0
 23 24  1  0
 23 70  1  0
 24 25  2  0
 24 71  1  0
 25 26  1  0
 25 44  1  0
 26 27  1  0
 27 28  1  0
 27 43  2  0
 28 29  2  0
 29 30  1  0
 29 41  1  0
 30 31  1  0
 31 32  1  0
 31 40  2  0
 32 33  2  0
 32 72  1  0
 33 34  1  0
 33 73  1  0
 34 35  1  0
 34 39  2  0
 35 36  1  6
 35 37  1  0
 35 38  1  0
 39 40  1  0
 39 74  1  0
 40 41  1  0
 41 42  2  0
 42 43  1  0
 42 75  1  0
 43 44  1  0
 44 45  2  0
 45 76  1  0
M  END

