
     RDKit          3D

 30 33  0  0  0  0  0  0  0  0999 V2000
    4.6832    2.2638    1.0590 C   0  0  0  0  0  0  0  0  0  0  0  0
    4.2011    0.8819    0.6864 C   0  0  0  0  0  0  0  0  0  0  0  0
    2.8276    0.5662    0.7506 C   0  0  0  0  0  0  0  0  0  0  0  0
    2.3701   -0.7186    0.4008 C   0  0  0  0  0  0  0  0  0  0  0  0
    3.2534   -1.7007   -0.0133 C   0  0  0  0  0  0  0  0  0  0  0  0
    4.6521   -1.4138   -0.0893 C   0  0  0  0  0  0  0  0  0  0  0  0
    5.5577   -2.4200   -0.5132 C   0  0  0  0  0  0  0  0  0  0  0  0
    5.2497   -3.6756   -0.8704 N   0  0  0  0  0  0  0  0  0  0  0  0
    6.3451   -4.3389   -1.2097 C   0  0  0  0  0  0  0  0  0  0  0  0
    6.5003   -5.9853   -1.7451 S   0  0  0  0  0  0  0  0  0  0  0  0
    8.2738   -5.7988   -1.8998 C   0  0  0  0  0  0  0  0  0  0  0  0
    9.1586   -6.7769   -2.3141 C   0  0  0  0  0  0  0  0  0  0  0  0
   10.5382   -6.4625   -2.3821 C   0  0  0  0  0  0  0  0  0  0  0  0
   10.9897   -5.1863   -2.0357 C   0  0  0  0  0  0  0  0  0  0  0  0
   10.0949   -4.1951   -1.6162 C   0  0  0  0  0  0  0  0  0  0  0  0
    8.7119   -4.4842   -1.5396 C   0  0  0  0  0  0  0  0  0  0  0  0
    7.6148   -3.6741   -1.1532 C   0  0  0  0  0  0  0  0  0  0  0  0
    7.3835   -2.0432   -0.6130 S   0  0  0  0  0  0  0  0  0  0  0  0
    5.0947   -0.1022    0.2712 C   0  0  0  0  0  0  0  0  0  0  0  0
    4.4332    2.5056    2.1057 H   0  0  0  0  0  0  0  0  0  0  0  0
    4.2090    3.0351    0.4291 H   0  0  0  0  0  0  0  0  0  0  0  0
    5.7732    2.3587    0.9431 H   0  0  0  0  0  0  0  0  0  0  0  0
    2.1135    1.3281    1.0755 H   0  0  0  0  0  0  0  0  0  0  0  0
    1.3014   -0.9436    0.4573 H   0  0  0  0  0  0  0  0  0  0  0  0
    2.9101   -2.6996   -0.2863 H   0  0  0  0  0  0  0  0  0  0  0  0
    8.8077   -7.7752   -2.5856 H   0  0  0  0  0  0  0  0  0  0  0  0
   11.2463   -7.2274   -2.7079 H   0  0  0  0  0  0  0  0  0  0  0  0
   12.0563   -4.9560   -2.0923 H   0  0  0  0  0  0  0  0  0  0  0  0
   10.4551   -3.1994   -1.3473 H   0  0  0  0  0  0  0  0  0  0  0  0
    6.1613    0.1367    0.2211 H   0  0  0  0  0  0  0  0  0  0  0  0
  1  2  1  0
  1 20  1  0
  1 21  1  0
  1 22  1  0
  2  3  2  0
  2 19  1  0
  3  4  1  0
  3 23  1  0
  4  5  2  0
  4 24  1  0
  5  6  1  0
  5 25  1  0
  6  7  1  0
  6 19  2  0
  7  8  2  0
  7 18  1  0
  8  9  1  0
  9 10  1  0
  9 17  2  0
 10 11  1  0
 11 12  2  0
 11 16  1  0
 12 13  1  0
 12 26  1  0
 13 14  2  0
 13 27  1  0
 14 15  1  0
 14 28  1  0
 15 16  2  0
 15 29  1  0
 16 17  1  0
 17 18  1  0
 19 30  1  0
M  END

