
     RDKit          3D

 42 46  0  0  0  0  0  0  0  0999 V2000
   -3.9181   -3.4561   -0.6253 C   0  0  0  0  0  0  0  0  0  0  0  0
   -2.5088   -3.5212   -0.6374 C   0  0  0  0  0  0  0  0  0  0  0  0
   -1.7388   -2.3854   -0.4517 C   0  0  0  0  0  0  0  0  0  0  0  0
   -2.3633   -1.1331   -0.2458 C   0  0  0  0  0  0  0  0  0  0  0  0
   -3.7861   -1.0896   -0.2372 C   0  0  0  0  0  0  0  0  0  0  0  0
   -4.5568   -2.2390   -0.4249 C   0  0  0  0  0  0  0  0  0  0  0  0
   -4.4415    0.0821   -0.0449 O   0  0  0  0  0  0  0  0  0  0  0  0
   -3.7413    1.2286    0.1415 C   0  0  0  0  0  0  0  0  0  0  0  0
   -4.4670    2.4059    0.3355 C   0  0  0  0  0  0  0  0  0  0  0  0
   -3.7817    3.5983    0.5302 C   0  0  0  0  0  0  0  0  0  0  0  0
   -2.3710    3.6108    0.5304 C   0  0  0  0  0  0  0  0  0  0  0  0
   -1.6454    2.4472    0.3386 C   0  0  0  0  0  0  0  0  0  0  0  0
   -2.3178    1.2191    0.1381 C   0  0  0  0  0  0  0  0  0  0  0  0
   -1.6401    0.0299   -0.0567 N   0  0  0  0  0  0  0  0  0  0  0  0
   -0.1844    0.0028   -0.0625 C   0  0  0  0  0  0  0  0  0  0  0  0
    0.5309   -0.2047    1.1399 C   0  0  0  0  0  0  0  0  0  0  0  0
    1.9113   -0.2289    1.1307 C   0  0  0  0  0  0  0  0  0  0  0  0
    2.6850   -0.0496   -0.0731 C   0  0  0  0  0  0  0  0  0  0  0  0
    4.1244   -0.0761   -0.0783 C   0  0  0  0  0  0  0  0  0  0  0  0
    4.9108    0.0996   -1.2634 C   0  0  0  0  0  0  0  0  0  0  0  0
    6.2953    0.0642   -1.2063 C   0  0  0  0  0  0  0  0  0  0  0  0
    7.0213   -0.1290   -0.0888 N   0  0  0  0  0  0  0  0  0  0  0  0
    6.2968   -0.2957    1.0339 C   0  0  0  0  0  0  0  0  0  0  0  0
    4.9125   -0.2805    1.1011 C   0  0  0  0  0  0  0  0  0  0  0  0
    1.9094    0.1583   -1.2711 C   0  0  0  0  0  0  0  0  0  0  0  0
    0.5291    0.1845   -1.2700 C   0  0  0  0  0  0  0  0  0  0  0  0
   -4.5094   -4.3615   -0.7734 H   0  0  0  0  0  0  0  0  0  0  0  0
   -2.0136   -4.4809   -0.7956 H   0  0  0  0  0  0  0  0  0  0  0  0
   -0.6517   -2.4258   -0.4593 H   0  0  0  0  0  0  0  0  0  0  0  0
   -5.6437   -2.1470   -0.4088 H   0  0  0  0  0  0  0  0  0  0  0  0
   -5.5567    2.3544    0.3287 H   0  0  0  0  0  0  0  0  0  0  0  0
   -4.3376    4.5251    0.6831 H   0  0  0  0  0  0  0  0  0  0  0  0
   -1.8390    4.5515    0.6842 H   0  0  0  0  0  0  0  0  0  0  0  0
   -0.5575    2.4469    0.3374 H   0  0  0  0  0  0  0  0  0  0  0  0
   -0.0077   -0.3465    2.0811 H   0  0  0  0  0  0  0  0  0  0  0  0
    2.4236   -0.3914    2.0791 H   0  0  0  0  0  0  0  0  0  0  0  0
    4.4393    0.2642   -2.2338 H   0  0  0  0  0  0  0  0  0  0  0  0
    6.8674    0.2026   -2.1337 H   0  0  0  0  0  0  0  0  0  0  0  0
    6.8703   -0.4549    1.9572 H   0  0  0  0  0  0  0  0  0  0  0  0
    4.4424   -0.4280    2.0750 H   0  0  0  0  0  0  0  0  0  0  0  0
    2.4203    0.3025   -2.2233 H   0  0  0  0  0  0  0  0  0  0  0  0
   -0.0109    0.3462   -2.2073 H   0  0  0  0  0  0  0  0  0  0  0  0
  1  2  2  0
  1  6  1  0
  1 27  1  0
  2  3  1  0
  2 28  1  0
  3  4  2  0
  3 29  1  0
  4  5  1  0
  4 14  1  0
  5  6  2  0
  5  7  1  0
  6 30  1  0
  7  8  1  0
  8  9  2  0
  8 13  1  0
  9 10  1  0
  9 31  1  0
 10 11  2  0
 10 32  1  0
 11 12  1  0
 11 33  1  0
 12 13  2  0
 12 34  1  0
 13 14  1  0
 14 15  1  0
 15 16  2  0
 15 26  1  0
 16 17  1  0
 16 35  1  0
 17 18  2  0
 17 36  1  0
 18 19  1  0
 18 25  1  0
 19 20  2  0
 19 24  1  0
 20 21  1  0
 20 37  1  0
 21 22  2  0
 21 38  1  0
 22 23  1  0
 23 24  2  0
 23 39  1  0
 24 40  1  0
 25 26  2  0
 25 41  1  0
 26 42  1  0
M  END

