
     RDKit          3D

 94106  0  0  0  0  0  0  0  0999 V2000
    1.2052   -0.2951   -0.4065 N   0  0  0  0  0  0  0  0  0  0  0  0
    2.3592   -0.1771   -0.4022 C   0  0  0  0  0  0  0  0  0  0  0  0
    3.7872   -0.0304   -0.3968 C   0  0  0  0  0  0  0  0  0  0  0  0
    4.3443    1.2580   -0.2047 C   0  0  0  0  0  0  0  0  0  0  0  0
    3.4888    2.3550    0.0209 N   0  0  0  0  0  0  0  0  0  0  0  0
    2.6921    2.5399    1.1666 C   0  0  0  0  0  0  0  0  0  0  0  0
    2.5709    1.7380    2.3054 C   0  0  0  0  0  0  0  0  0  0  0  0
    1.7156    2.1730    3.3196 C   0  0  0  0  0  0  0  0  0  0  0  0
    0.9996    3.3778    3.2047 C   0  0  0  0  0  0  0  0  0  0  0  0
    1.1256    4.1725    2.0659 C   0  0  0  0  0  0  0  0  0  0  0  0
    1.9764    3.7559    1.0327 C   0  0  0  0  0  0  0  0  0  0  0  0
    2.3341    4.3200   -0.2557 C   0  0  0  0  0  0  0  0  0  0  0  0
    1.9328    5.4693   -0.9505 C   0  0  0  0  0  0  0  0  0  0  0  0
    2.4508    5.7091   -2.2229 C   0  0  0  0  0  0  0  0  0  0  0  0
    3.3566    4.8070   -2.8087 C   0  0  0  0  0  0  0  0  0  0  0  0
    3.7710    3.6553   -2.1369 C   0  0  0  0  0  0  0  0  0  0  0  0
    3.2623    3.4311   -0.8555 C   0  0  0  0  0  0  0  0  0  0  0  0
    5.7494    1.4069   -0.2348 C   0  0  0  0  0  0  0  0  0  0  0  0
    6.3628    2.6716   -0.1313 N   0  0  0  0  0  0  0  0  0  0  0  0
    6.3922    3.4960    1.0078 C   0  0  0  0  0  0  0  0  0  0  0  0
    5.8787    3.2651    2.2862 C   0  0  0  0  0  0  0  0  0  0  0  0
    6.0729    4.2533    3.2533 C   0  0  0  0  0  0  0  0  0  0  0  0
    6.7699    5.4384    2.9584 C   0  0  0  0  0  0  0  0  0  0  0  0
    7.2955    5.6543    1.6849 C   0  0  0  0  0  0  0  0  0  0  0  0
    7.1117    4.6780    0.6962 C   0  0  0  0  0  0  0  0  0  0  0  0
    7.5416    4.5631   -0.6851 C   0  0  0  0  0  0  0  0  0  0  0  0
    8.2676    5.4013   -1.5425 C   0  0  0  0  0  0  0  0  0  0  0  0
    8.5204    4.9836   -2.8486 C   0  0  0  0  0  0  0  0  0  0  0  0
    8.0531    3.7381   -3.3043 C   0  0  0  0  0  0  0  0  0  0  0  0
    7.3249    2.8872   -2.4704 C   0  0  0  0  0  0  0  0  0  0  0  0
    7.0770    3.3119   -1.1617 C   0  0  0  0  0  0  0  0  0  0  0  0
    6.5584    0.2538   -0.3871 C   0  0  0  0  0  0  0  0  0  0  0  0
    7.9865    0.3996   -0.3790 C   0  0  0  0  0  0  0  0  0  0  0  0
    9.1406    0.5159   -0.3719 N   0  0  0  0  0  0  0  0  0  0  0  0
    6.0015   -1.0392   -0.5468 C   0  0  0  0  0  0  0  0  0  0  0  0
    6.8589   -2.1528   -0.6541 N   0  0  0  0  0  0  0  0  0  0  0  0
    7.6812   -2.6459    0.3765 C   0  0  0  0  0  0  0  0  0  0  0  0
    7.8275   -2.1945    1.6915 C   0  0  0  0  0  0  0  0  0  0  0  0
    8.7049   -2.8909    2.5250 C   0  0  0  0  0  0  0  0  0  0  0  0
    9.4185   -4.0107    2.0621 C   0  0  0  0  0  0  0  0  0  0  0  0
    9.2678   -4.4548    0.7489 C   0  0  0  0  0  0  0  0  0  0  0  0
    8.3945   -3.7708   -0.1081 C   0  0  0  0  0  0  0  0  0  0  0  0
    8.0082   -3.9538   -1.4949 C   0  0  0  0  0  0  0  0  0  0  0  0
    8.3936   -4.8607   -2.4917 C   0  0  0  0  0  0  0  0  0  0  0  0
    7.8451   -4.7403   -3.7682 C   0  0  0  0  0  0  0  0  0  0  0  0
    6.9250   -3.7172   -4.0581 C   0  0  0  0  0  0  0  0  0  0  0  0
    6.5263   -2.8013   -3.0826 C   0  0  0  0  0  0  0  0  0  0  0  0
    7.0654   -2.9394   -1.8014 C   0  0  0  0  0  0  0  0  0  0  0  0
    4.5959   -1.1785   -0.5850 C   0  0  0  0  0  0  0  0  0  0  0  0
    3.9812   -2.4262   -0.8134 N   0  0  0  0  0  0  0  0  0  0  0  0
    3.2440   -2.7678   -1.9628 C   0  0  0  0  0  0  0  0  0  0  0  0
    2.9743   -2.0086   -3.1053 C   0  0  0  0  0  0  0  0  0  0  0  0
    2.2251   -2.6051   -4.1214 C   0  0  0  0  0  0  0  0  0  0  0  0
    1.7568   -3.9259   -4.0047 C   0  0  0  0  0  0  0  0  0  0  0  0
    2.0299   -4.6770   -2.8620 C   0  0  0  0  0  0  0  0  0  0  0  0
    2.7781   -4.0993   -1.8269 C   0  0  0  0  0  0  0  0  0  0  0  0
    3.2312   -4.5779   -0.5339 C   0  0  0  0  0  0  0  0  0  0  0  0
    3.0558   -5.7805    0.1643 C   0  0  0  0  0  0  0  0  0  0  0  0
    3.6020   -5.9102    1.4409 C   0  0  0  0  0  0  0  0  0  0  0  0
    4.3112   -4.8471    2.0274 C   0  0  0  0  0  0  0  0  0  0  0  0
    4.4986   -3.6392    1.3525 C   0  0  0  0  0  0  0  0  0  0  0  0
    3.9647   -3.5229    0.0668 C   0  0  0  0  0  0  0  0  0  0  0  0
    3.1147    0.7967    2.4051 H   0  0  0  0  0  0  0  0  0  0  0  0
    1.5988    1.5597    4.2164 H   0  0  0  0  0  0  0  0  0  0  0  0
    0.3367    3.6900    4.0150 H   0  0  0  0  0  0  0  0  0  0  0  0
    0.5683    5.1083    1.9782 H   0  0  0  0  0  0  0  0  0  0  0  0
    1.2179    6.1636   -0.5023 H   0  0  0  0  0  0  0  0  0  0  0  0
    2.1462    6.6016   -2.7743 H   0  0  0  0  0  0  0  0  0  0  0  0
    3.7468    5.0070   -3.8094 H   0  0  0  0  0  0  0  0  0  0  0  0
    4.4691    2.9620   -2.6060 H   0  0  0  0  0  0  0  0  0  0  0  0
    5.3411    2.3493    2.5317 H   0  0  0  0  0  0  0  0  0  0  0  0
    5.6737    4.0976    4.2584 H   0  0  0  0  0  0  0  0  0  0  0  0
    6.9055    6.1920    3.7375 H   0  0  0  0  0  0  0  0  0  0  0  0
    7.8497    6.5691    1.4613 H   0  0  0  0  0  0  0  0  0  0  0  0
    8.6304    6.3700   -1.1904 H   0  0  0  0  0  0  0  0  0  0  0  0
    9.0883    5.6264   -3.5250 H   0  0  0  0  0  0  0  0  0  0  0  0
    8.2658    3.4242   -4.3291 H   0  0  0  0  0  0  0  0  0  0  0  0
    6.9747    1.9201   -2.8365 H   0  0  0  0  0  0  0  0  0  0  0  0
    7.2858   -1.3223    2.0627 H   0  0  0  0  0  0  0  0  0  0  0  0
    8.8412   -2.5528    3.5551 H   0  0  0  0  0  0  0  0  0  0  0  0
   10.0988   -4.5333    2.7383 H   0  0  0  0  0  0  0  0  0  0  0  0
    9.8231   -5.3251    0.3907 H   0  0  0  0  0  0  0  0  0  0  0  0
    9.1193   -5.6473   -2.2713 H   0  0  0  0  0  0  0  0  0  0  0  0
    8.1363   -5.4417   -4.5534 H   0  0  0  0  0  0  0  0  0  0  0  0
    6.5105   -3.6335   -5.0656 H   0  0  0  0  0  0  0  0  0  0  0  0
    5.8153   -2.0111   -3.3233 H   0  0  0  0  0  0  0  0  0  0  0  0
    3.3235   -0.9792   -3.2060 H   0  0  0  0  0  0  0  0  0  0  0  0
    1.9957   -2.0291   -5.0212 H   0  0  0  0  0  0  0  0  0  0  0  0
    1.1717   -4.3639   -4.8165 H   0  0  0  0  0  0  0  0  0  0  0  0
    1.6656   -5.7033   -2.7730 H   0  0  0  0  0  0  0  0  0  0  0  0
    2.4918   -6.6019   -0.2842 H   0  0  0  0  0  0  0  0  0  0  0  0
    3.4729   -6.8426    1.9953 H   0  0  0  0  0  0  0  0  0  0  0  0
    4.7259   -4.9638    3.0316 H   0  0  0  0  0  0  0  0  0  0  0  0
    5.0464   -2.8221    1.8218 H   0  0  0  0  0  0  0  0  0  0  0  0
  1  2  3  0
  2  3  1  0
  3  4  2  0
  3 49  1  0
  4  5  1  0
  4 18  1  0
  5  6  1  0
  5 17  1  0
  6  7  2  0
  6 11  1  0
  7  8  1  0
  7 63  1  0
  8  9  2  0
  8 64  1  0
  9 10  1  0
  9 65  1  0
 10 11  2  0
 10 66  1  0
 11 12  1  0
 12 13  1  0
 12 17  2  0
 13 14  2  0
 13 67  1  0
 14 15  1  0
 14 68  1  0
 15 16  2  0
 15 69  1  0
 16 17  1  0
 16 70  1  0
 18 19  1  0
 18 32  2  0
 19 20  1  0
 19 31  1  0
 20 21  2  0
 20 25  1  0
 21 22  1  0
 21 71  1  0
 22 23  2  0
 22 72  1  0
 23 24  1  0
 23 73  1  0
 24 25  2  0
 24 74  1  0
 25 26  1  0
 26 27  1  0
 26 31  2  0
 27 28  2  0
 27 75  1  0
 28 29  1  0
 28 76  1  0
 29 30  2  0
 29 77  1  0
 30 31  1  0
 30 78  1  0
 32 33  1  0
 32 35  1  0
 33 34  3  0
 35 36  1  0
 35 49  2  0
 36 37  1  0
 36 48  1  0
 37 38  2  0
 37 42  1  0
 38 39  1  0
 38 79  1  0
 39 40  2  0
 39 80  1  0
 40 41  1  0
 40 81  1  0
 41 42  2  0
 41 82  1  0
 42 43  1  0
 43 44  1  0
 43 48  2  0
 44 45  2  0
 44 83  1  0
 45 46  1  0
 45 84  1  0
 46 47  2  0
 46 85  1  0
 47 48  1  0
 47 86  1  0
 49 50  1  0
 50 51  1  0
 50 62  1  0
 51 52  2  0
 51 56  1  0
 52 53  1  0
 52 87  1  0
 53 54  2  0
 53 88  1  0
 54 55  1  0
 54 89  1  0
 55 56  2  0
 55 90  1  0
 56 57  1  0
 57 58  1  0
 57 62  2  0
 58 59  2  0
 58 91  1  0
 59 60  1  0
 59 92  1  0
 60 61  2  0
 60 93  1  0
 61 62  1  0
 61 94  1  0
M  END

