
     RDKit          3D

114123  0  0  0  0  0  0  0  0999 V2000
    3.4325   -1.4124    0.3767 C   0  0  0  0  0  0  0  0  0  0  0  0
    2.6649   -1.5050   -0.9432 C   0  0  0  0  0  0  0  0  0  0  0  0
    3.3400   -0.8075   -2.1656 C   0  0  2  0  0  0  0  0  0  0  0  0
    2.4756   -1.0007   -3.4516 C   0  0  0  0  0  0  0  0  0  0  0  0
    3.0588   -0.4043   -4.7338 C   0  0  0  0  0  0  0  0  0  0  0  0
    4.7038   -1.4463   -2.3990 C   0  0  0  0  0  0  0  0  0  0  0  0
    4.9388   -2.7757   -2.6888 C   0  0  0  0  0  0  0  0  0  0  0  0
    6.2649   -3.2555   -2.9050 C   0  0  0  0  0  0  0  0  0  0  0  0
    6.5853   -4.6238   -3.2066 C   0  0  0  0  0  0  0  0  0  0  0  0
    5.7046   -5.6745   -3.3325 C   0  0  0  0  0  0  0  0  0  0  0  0
    6.0580   -7.0318   -3.6320 C   0  0  0  0  0  0  0  0  0  0  0  0
    7.3018   -7.6259   -3.8576 C   0  0  0  0  0  0  0  0  0  0  0  0
    7.2265   -9.0160   -4.1259 C   0  0  0  0  0  0  0  0  0  0  0  0
    5.9398   -9.5069   -4.1109 C   0  0  0  0  0  0  0  0  0  0  0  0
    4.7948   -8.2525   -3.7631 S   0  0  0  0  0  0  0  0  0  0  0  0
    7.3050   -2.2870   -2.8140 C   0  0  0  0  0  0  0  0  0  0  0  0
    7.0679   -0.9543   -2.5210 C   0  0  0  0  0  0  0  0  0  0  0  0
    5.7461   -0.4892   -2.2911 C   0  0  0  0  0  0  0  0  0  0  0  0
    5.1472    0.8082   -1.9712 C   0  0  0  0  0  0  0  0  0  0  0  0
    3.7208    0.6574   -1.9022 C   0  0  0  0  0  0  0  0  0  0  0  0
    2.9096    1.7833   -1.6168 C   0  0  0  0  0  0  0  0  0  0  0  0
    3.4956    3.0803   -1.4015 C   0  0  0  0  0  0  0  0  0  0  0  0
    4.8942    3.2329   -1.4767 C   0  0  0  0  0  0  0  0  0  0  0  0
    5.7175    2.0861   -1.7304 C   0  0  0  0  0  0  0  0  0  0  0  0
    7.1989    2.4714   -1.7126 C   0  0  1  0  0  0  0  0  0  0  0  0
    8.0114    1.7293   -0.6093 C   0  0  0  0  0  0  0  0  0  0  0  0
    7.4158    1.8133    0.7981 C   0  0  0  0  0  0  0  0  0  0  0  0
    7.7768    2.2946   -3.1649 C   0  0  0  0  0  0  0  0  0  0  0  0
    9.2963    2.3515   -3.3339 C   0  0  0  0  0  0  0  0  0  0  0  0
    7.1275    3.9558   -1.3869 C   0  0  0  0  0  0  0  0  0  0  0  0
    8.1882    4.8216   -1.1915 C   0  0  0  0  0  0  0  0  0  0  0  0
    7.9652    6.2063   -0.9552 C   0  0  0  0  0  0  0  0  0  0  0  0
    9.0268    7.1668   -0.7501 C   0  0  0  0  0  0  0  0  0  0  0  0
   10.3713    6.9170   -0.7359 C   0  0  0  0  0  0  0  0  0  0  0  0
   11.4057    7.8977   -0.5295 C   0  0  0  0  0  0  0  0  0  0  0  0
   11.3281    9.2700   -0.3037 C   0  0  0  0  0  0  0  0  0  0  0  0
   12.5941    9.8894   -0.1495 C   0  0  0  0  0  0  0  0  0  0  0  0
   13.6445    9.0043   -0.2548 C   0  0  0  0  0  0  0  0  0  0  0  0
   13.0879    7.3949   -0.5455 S   0  0  0  0  0  0  0  0  0  0  0  0
    6.6183    6.6453   -0.9330 C   0  0  0  0  0  0  0  0  0  0  0  0
    5.5511    5.7733   -1.1001 C   0  0  0  0  0  0  0  0  0  0  0  0
    5.7792    4.3934   -1.3091 C   0  0  0  0  0  0  0  0  0  0  0  0
    2.4209    4.1345   -1.1198 C   0  0  1  0  0  0  0  0  0  0  0  0
    2.5565    4.8283    0.2697 C   0  0  0  0  0  0  0  0  0  0  0  0
    2.7189    3.8758    1.4563 C   0  0  0  0  0  0  0  0  0  0  0  0
    2.3772    5.1441   -2.3228 C   0  0  0  0  0  0  0  0  0  0  0  0
    1.5105    6.3978   -2.1833 C   0  0  0  0  0  0  0  0  0  0  0  0
    1.1623    3.2834   -1.1339 C   0  0  0  0  0  0  0  0  0  0  0  0
   -0.1266    3.6906   -0.8585 C   0  0  0  0  0  0  0  0  0  0  0  0
   -1.2129    2.7743   -0.9387 C   0  0  0  0  0  0  0  0  0  0  0  0
   -2.5795    3.1299   -0.6705 C   0  0  0  0  0  0  0  0  0  0  0  0
   -3.0536    4.3676   -0.3078 C   0  0  0  0  0  0  0  0  0  0  0  0
   -4.4248    4.6836   -0.0431 C   0  0  0  0  0  0  0  0  0  0  0  0
   -5.5663    3.8768   -0.0762 C   0  0  0  0  0  0  0  0  0  0  0  0
   -6.7512    4.5701    0.2535 C   0  0  0  0  0  0  0  0  0  0  0  0
   -6.5304    5.9040    0.5401 C   0  0  0  0  0  0  0  0  0  0  0  0
   -4.8664    6.3221    0.4079 S   0  0  0  0  0  0  0  0  0  0  0  0
   -0.9115    1.4339   -1.3031 C   0  0  0  0  0  0  0  0  0  0  0  0
    0.3831    1.0155   -1.5529 C   0  0  0  0  0  0  0  0  0  0  0  0
    1.4635    1.9264   -1.4623 C   0  0  0  0  0  0  0  0  0  0  0  0
    2.8974   -1.9585    1.1700 H   0  0  0  0  0  0  0  0  0  0  0  0
    3.5444   -0.3682    0.7093 H   0  0  0  0  0  0  0  0  0  0  0  0
    4.4392   -1.8487    0.2919 H   0  0  0  0  0  0  0  0  0  0  0  0
    1.6514   -1.1096   -0.7887 H   0  0  0  0  0  0  0  0  0  0  0  0
    2.5317   -2.5666   -1.2126 H   0  0  0  0  0  0  0  0  0  0  0  0
    1.4683   -0.5888   -3.3001 H   0  0  0  0  0  0  0  0  0  0  0  0
    2.3354   -2.0870   -3.5860 H   0  0  0  0  0  0  0  0  0  0  0  0
    3.1799    0.6879   -4.6550 H   0  0  0  0  0  0  0  0  0  0  0  0
    2.3916   -0.6048   -5.5874 H   0  0  0  0  0  0  0  0  0  0  0  0
    4.0429   -0.8362   -4.9702 H   0  0  0  0  0  0  0  0  0  0  0  0
    4.0992   -3.4708   -2.7571 H   0  0  0  0  0  0  0  0  0  0  0  0
    7.6516   -4.8302   -3.3469 H   0  0  0  0  0  0  0  0  0  0  0  0
    4.6358   -5.4838   -3.1969 H   0  0  0  0  0  0  0  0  0  0  0  0
    8.2381   -7.0677   -3.8277 H   0  0  0  0  0  0  0  0  0  0  0  0
    8.0992   -9.6414   -4.3250 H   0  0  0  0  0  0  0  0  0  0  0  0
    5.6034  -10.5278   -4.2832 H   0  0  0  0  0  0  0  0  0  0  0  0
    8.3350   -2.6124   -2.9861 H   0  0  0  0  0  0  0  0  0  0  0  0
    7.9243   -0.2885   -2.4864 H   0  0  0  0  0  0  0  0  0  0  0  0
    9.0266    2.1584   -0.5963 H   0  0  0  0  0  0  0  0  0  0  0  0
    8.1349    0.6723   -0.8749 H   0  0  0  0  0  0  0  0  0  0  0  0
    7.2968    2.8558    1.1330 H   0  0  0  0  0  0  0  0  0  0  0  0
    8.0736    1.3048    1.5207 H   0  0  0  0  0  0  0  0  0  0  0  0
    6.4298    1.3255    0.8508 H   0  0  0  0  0  0  0  0  0  0  0  0
    7.3130    3.0766   -3.7881 H   0  0  0  0  0  0  0  0  0  0  0  0
    7.4146    1.3438   -3.5776 H   0  0  0  0  0  0  0  0  0  0  0  0
    9.7236    3.3108   -3.0057 H   0  0  0  0  0  0  0  0  0  0  0  0
    9.5544    2.2306   -4.3982 H   0  0  0  0  0  0  0  0  0  0  0  0
    9.8095    1.5474   -2.7834 H   0  0  0  0  0  0  0  0  0  0  0  0
    9.2093    4.4403   -1.2149 H   0  0  0  0  0  0  0  0  0  0  0  0
    8.6932    8.1977   -0.5917 H   0  0  0  0  0  0  0  0  0  0  0  0
   10.7189    5.8913   -0.8920 H   0  0  0  0  0  0  0  0  0  0  0  0
   10.3825    9.8109   -0.2514 H   0  0  0  0  0  0  0  0  0  0  0  0
   12.7294   10.9568    0.0339 H   0  0  0  0  0  0  0  0  0  0  0  0
   14.7107    9.2118   -0.1773 H   0  0  0  0  0  0  0  0  0  0  0  0
    6.4142    7.7075   -0.7718 H   0  0  0  0  0  0  0  0  0  0  0  0
    4.5484    6.1873   -1.0724 H   0  0  0  0  0  0  0  0  0  0  0  0
    1.6628    5.4551    0.4273 H   0  0  0  0  0  0  0  0  0  0  0  0
    3.4046    5.5246    0.2609 H   0  0  0  0  0  0  0  0  0  0  0  0
    1.8772    3.1695    1.5369 H   0  0  0  0  0  0  0  0  0  0  0  0
    2.7667    4.4435    2.3991 H   0  0  0  0  0  0  0  0  0  0  0  0
    3.6448    3.2859    1.3761 H   0  0  0  0  0  0  0  0  0  0  0  0
    2.0495    4.5728   -3.2070 H   0  0  0  0  0  0  0  0  0  0  0  0
    3.4064    5.4536   -2.5505 H   0  0  0  0  0  0  0  0  0  0  0  0
    0.4446    6.1619   -2.0419 H   0  0  0  0  0  0  0  0  0  0  0  0
    1.5843    7.0036   -3.1006 H   0  0  0  0  0  0  0  0  0  0  0  0
    1.8287    7.0388   -1.3460 H   0  0  0  0  0  0  0  0  0  0  0  0
   -0.3157    4.7227   -0.5635 H   0  0  0  0  0  0  0  0  0  0  0  0
   -3.3020    2.3139   -0.7709 H   0  0  0  0  0  0  0  0  0  0  0  0
   -2.3444    5.1939   -0.2065 H   0  0  0  0  0  0  0  0  0  0  0  0
   -5.5384    2.8171   -0.3314 H   0  0  0  0  0  0  0  0  0  0  0  0
   -7.7397    4.1098    0.2817 H   0  0  0  0  0  0  0  0  0  0  0  0
   -7.2650    6.6572    0.8216 H   0  0  0  0  0  0  0  0  0  0  0  0
   -1.7288    0.7118   -1.3775 H   0  0  0  0  0  0  0  0  0  0  0  0
    0.5460   -0.0236   -1.8117 H   0  0  0  0  0  0  0  0  0  0  0  0
  1  2  1  0
  1 61  1  0
  1 62  1  0
  1 63  1  0
  3  2  1  1
  2 64  1  0
  2 65  1  0
  3  4  1  0
  3  6  1  0
  3 20  1  0
  4  5  1  0
  4 66  1  0
  4 67  1  0
  5 68  1  0
  5 69  1  0
  5 70  1  0
  6  7  2  0
  6 18  1  0
  7  8  1  0
  7 71  1  0
  8  9  1  0
  8 16  2  0
  9 10  2  0
  9 72  1  0
 10 11  1  0
 10 73  1  0
 11 12  2  0
 11 15  1  0
 12 13  1  0
 12 74  1  0
 13 14  2  0
 13 75  1  0
 14 15  1  0
 14 76  1  0
 16 17  1  0
 16 77  1  0
 17 18  2  0
 17 78  1  0
 18 19  1  0
 19 20  2  0
 19 24  1  0
 20 21  1  0
 21 22  2  0
 21 60  1  0
 22 23  1  0
 22 43  1  0
 23 24  2  0
 23 42  1  0
 24 25  1  0
 25 26  1  1
 25 28  1  0
 25 30  1  0
 26 27  1  0
 26 79  1  0
 26 80  1  0
 27 81  1  0
 27 82  1  0
 27 83  1  0
 28 29  1  0
 28 84  1  0
 28 85  1  0
 29 86  1  0
 29 87  1  0
 29 88  1  0
 30 31  1  0
 30 42  2  0
 31 32  2  0
 31 89  1  0
 32 33  1  0
 32 40  1  0
 33 34  2  0
 33 90  1  0
 34 35  1  0
 34 91  1  0
 35 36  2  0
 35 39  1  0
 36 37  1  0
 36 92  1  0
 37 38  2  0
 37 93  1  0
 38 39  1  0
 38 94  1  0
 40 41  2  0
 40 95  1  0
 41 42  1  0
 41 96  1  0
 43 44  1  1
 43 46  1  0
 43 48  1  0
 44 45  1  0
 44 97  1  0
 44 98  1  0
 45 99  1  0
 45100  1  0
 45101  1  0
 46 47  1  0
 46102  1  0
 46103  1  0
 47104  1  0
 47105  1  0
 47106  1  0
 48 49  1  0
 48 60  2  0
 49 50  2  0
 49107  1  0
 50 51  1  0
 50 58  1  0
 51 52  2  0
 51108  1  0
 52 53  1  0
 52109  1  0
 53 54  2  0
 53 57  1  0
 54 55  1  0
 54110  1  0
 55 56  2  0
 55111  1  0
 56 57  1  0
 56112  1  0
 58 59  2  0
 58113  1  0
 59 60  1  0
 59114  1  0
M  END

