
     RDKit          3D

 69 77  0  0  0  0  0  0  0  0999 V2000
    1.8976    0.4743    2.9466 C   0  0  0  0  0  0  0  0  0  0  0  0
    2.0203   -0.9084    2.8314 C   0  0  0  0  0  0  0  0  0  0  0  0
    1.2297   -1.6158    1.9163 C   0  0  0  0  0  0  0  0  0  0  0  0
    0.3049   -0.9509    1.0991 C   0  0  0  0  0  0  0  0  0  0  0  0
    0.1884    0.4502    1.2313 C   0  0  0  0  0  0  0  0  0  0  0  0
    0.9739    1.1509    2.1399 C   0  0  0  0  0  0  0  0  0  0  0  0
   -0.7032    1.1744    0.4777 O   0  0  0  0  0  0  0  0  0  0  0  0
   -1.4880    0.5232   -0.4425 C   0  0  0  0  0  0  0  0  0  0  0  0
   -2.3640    1.2962   -1.1968 C   0  0  0  0  0  0  0  0  0  0  0  0
   -3.1904    0.6976   -2.1562 C   0  0  0  0  0  0  0  0  0  0  0  0
   -3.1235   -0.6801   -2.3505 C   0  0  0  0  0  0  0  0  0  0  0  0
   -2.2410   -1.4601   -1.5917 C   0  0  0  0  0  0  0  0  0  0  0  0
   -1.4132   -0.8752   -0.6235 C   0  0  0  0  0  0  0  0  0  0  0  0
   -0.5122   -1.6192    0.1651 N   0  0  0  0  0  0  0  0  0  0  0  0
   -0.4303   -3.0375    0.0181 C   0  0  0  0  0  0  0  0  0  0  0  0
    0.5408   -3.6085   -0.8192 C   0  0  0  0  0  0  0  0  0  0  0  0
    0.6187   -4.9907   -0.9671 C   0  0  0  0  0  0  0  0  0  0  0  0
   -0.2818   -5.8258   -0.2796 C   0  0  0  0  0  0  0  0  0  0  0  0
   -0.1861   -7.2708   -0.4553 C   0  0  0  0  0  0  0  0  0  0  0  0
    0.6582   -7.9428   -1.1840 N   0  0  0  0  0  0  0  0  0  0  0  0
    0.3523   -9.2715   -1.0297 N   0  0  0  0  0  0  0  0  0  0  0  0
   -0.6617   -9.3365   -0.2155 C   0  0  0  0  0  0  0  0  0  0  0  0
   -1.3626  -10.5220    0.2659 C   0  0  0  0  0  0  0  0  0  0  0  0
   -0.9285  -11.7927   -0.1556 C   0  0  0  0  0  0  0  0  0  0  0  0
   -1.5824  -12.9375    0.2921 C   0  0  0  0  0  0  0  0  0  0  0  0
   -2.6779  -12.8345    1.1633 C   0  0  0  0  0  0  0  0  0  0  0  0
   -3.3455  -14.0115    1.6213 N   0  0  0  0  0  0  0  0  0  0  0  0
   -2.9484  -14.6312    2.8232 C   0  0  0  0  0  0  0  0  0  0  0  0
   -1.9061  -14.1437    3.6239 C   0  0  0  0  0  0  0  0  0  0  0  0
   -1.5464  -14.7945    4.8114 C   0  0  0  0  0  0  0  0  0  0  0  0
   -2.2219  -15.9431    5.2173 C   0  0  0  0  0  0  0  0  0  0  0  0
   -3.2646  -16.4419    4.4260 C   0  0  0  0  0  0  0  0  0  0  0  0
   -3.6227  -15.7971    3.2472 C   0  0  0  0  0  0  0  0  0  0  0  0
   -4.6522  -16.3405    2.5181 O   0  0  0  0  0  0  0  0  0  0  0  0
   -5.0426  -15.7307    1.3508 C   0  0  0  0  0  0  0  0  0  0  0  0
   -6.0948  -16.3085    0.6489 C   0  0  0  0  0  0  0  0  0  0  0  0
   -6.5443  -15.7386   -0.5491 C   0  0  0  0  0  0  0  0  0  0  0  0
   -5.9275  -14.5861   -1.0304 C   0  0  0  0  0  0  0  0  0  0  0  0
   -4.8677  -14.0024   -0.3239 C   0  0  0  0  0  0  0  0  0  0  0  0
   -4.4069  -14.5628    0.8755 C   0  0  0  0  0  0  0  0  0  0  0  0
   -3.1112  -11.5693    1.5823 C   0  0  0  0  0  0  0  0  0  0  0  0
   -2.4592  -10.4190    1.1391 C   0  0  0  0  0  0  0  0  0  0  0  0
   -1.0550   -8.0975    0.1889 O   0  0  0  0  0  0  0  0  0  0  0  0
   -1.2545   -5.2540    0.5587 C   0  0  0  0  0  0  0  0  0  0  0  0
   -1.3237   -3.8692    0.7069 C   0  0  0  0  0  0  0  0  0  0  0  0
    2.5109    1.0320    3.6576 H   0  0  0  0  0  0  0  0  0  0  0  0
    2.7332   -1.4545    3.4535 H   0  0  0  0  0  0  0  0  0  0  0  0
    1.3331   -2.6982    1.8367 H   0  0  0  0  0  0  0  0  0  0  0  0
    0.8434    2.2332    2.2003 H   0  0  0  0  0  0  0  0  0  0  0  0
   -2.3819    2.3726   -1.0149 H   0  0  0  0  0  0  0  0  0  0  0  0
   -3.8761    1.3120   -2.7436 H   0  0  0  0  0  0  0  0  0  0  0  0
   -3.7568   -1.1653   -3.0967 H   0  0  0  0  0  0  0  0  0  0  0  0
   -2.1947   -2.5370   -1.7545 H   0  0  0  0  0  0  0  0  0  0  0  0
    1.2335   -2.9552   -1.3537 H   0  0  0  0  0  0  0  0  0  0  0  0
    1.3693   -5.4436   -1.6171 H   0  0  0  0  0  0  0  0  0  0  0  0
   -0.0756  -11.8627   -0.8329 H   0  0  0  0  0  0  0  0  0  0  0  0
   -1.2494  -13.9264   -0.0292 H   0  0  0  0  0  0  0  0  0  0  0  0
   -1.3700  -13.2461    3.3150 H   0  0  0  0  0  0  0  0  0  0  0  0
   -0.7295  -14.3907    5.4139 H   0  0  0  0  0  0  0  0  0  0  0  0
   -1.9466  -16.4556    6.1414 H   0  0  0  0  0  0  0  0  0  0  0  0
   -3.8193  -17.3394    4.7067 H   0  0  0  0  0  0  0  0  0  0  0  0
   -6.5505  -17.2106    1.0619 H   0  0  0  0  0  0  0  0  0  0  0  0
   -7.3710  -16.1989   -1.0944 H   0  0  0  0  0  0  0  0  0  0  0  0
   -6.2637  -14.1263   -1.9626 H   0  0  0  0  0  0  0  0  0  0  0  0
   -4.3919  -13.1005   -0.7097 H   0  0  0  0  0  0  0  0  0  0  0  0
   -3.9643  -11.4961    2.2598 H   0  0  0  0  0  0  0  0  0  0  0  0
   -2.8004   -9.4363    1.4690 H   0  0  0  0  0  0  0  0  0  0  0  0
   -1.9543   -5.8965    1.0958 H   0  0  0  0  0  0  0  0  0  0  0  0
   -2.0753   -3.4192    1.3586 H   0  0  0  0  0  0  0  0  0  0  0  0
  1  2  2  0
  1  6  1  0
  1 46  1  0
  2  3  1  0
  2 47  1  0
  3  4  2  0
  3 48  1  0
  4  5  1  0
  4 14  1  0
  5  6  2  0
  5  7  1  0
  6 49  1  0
  7  8  1  0
  8  9  2  0
  8 13  1  0
  9 10  1  0
  9 50  1  0
 10 11  2  0
 10 51  1  0
 11 12  1  0
 11 52  1  0
 12 13  2  0
 12 53  1  0
 13 14  1  0
 14 15  1  0
 15 16  2  0
 15 45  1  0
 16 17  1  0
 16 54  1  0
 17 18  2  0
 17 55  1  0
 18 19  1  0
 18 44  1  0
 19 20  2  0
 19 43  1  0
 20 21  1  0
 21 22  2  0
 22 23  1  0
 22 43  1  0
 23 24  2  0
 23 42  1  0
 24 25  1  0
 24 56  1  0
 25 26  2  0
 25 57  1  0
 26 27  1  0
 26 41  1  0
 27 28  1  0
 27 40  1  0
 28 29  2  0
 28 33  1  0
 29 30  1  0
 29 58  1  0
 30 31  2  0
 30 59  1  0
 31 32  1  0
 31 60  1  0
 32 33  2  0
 32 61  1  0
 33 34  1  0
 34 35  1  0
 35 36  2  0
 35 40  1  0
 36 37  1  0
 36 62  1  0
 37 38  2  0
 37 63  1  0
 38 39  1  0
 38 64  1  0
 39 40  2  0
 39 65  1  0
 41 42  2  0
 41 66  1  0
 42 67  1  0
 44 45  2  0
 44 68  1  0
 45 69  1  0
M  END

