
     RDKit          3D

123135  0  0  0  0  0  0  0  0999 V2000
   -9.0419   -2.8965    1.2168 C   0  0  0  0  0  0  0  0  0  0  0  0
   -8.0097   -3.4459    0.1966 C   0  0  2  0  0  0  0  0  0  0  0  0
   -8.7203   -4.4200   -0.7810 C   0  0  0  0  0  0  0  0  0  0  0  0
   -6.9135   -4.2104    0.9523 C   0  0  0  0  0  0  0  0  0  0  0  0
   -7.2686   -5.3001    1.7623 C   0  0  0  0  0  0  0  0  0  0  0  0
   -6.3315   -6.0508    2.4713 C   0  0  0  0  0  0  0  0  0  0  0  0
   -4.9826   -5.7065    2.3725 C   0  0  0  0  0  0  0  0  0  0  0  0
   -4.5937   -4.6316    1.5788 C   0  0  0  0  0  0  0  0  0  0  0  0
   -5.5440   -3.8713    0.8613 C   0  0  0  0  0  0  0  0  0  0  0  0
   -5.1219   -2.7890    0.0685 N   0  0  0  0  0  0  0  0  0  0  0  0
   -3.7227   -2.4908   -0.0177 C   0  0  0  0  0  0  0  0  0  0  0  0
   -3.1300   -1.6010    0.8875 C   0  0  0  0  0  0  0  0  0  0  0  0
   -1.7692   -1.3064    0.7984 C   0  0  0  0  0  0  0  0  0  0  0  0
   -0.9695   -1.9049   -0.1911 C   0  0  0  0  0  0  0  0  0  0  0  0
    0.5031   -1.6766   -0.2606 C   0  0  0  0  0  0  0  0  0  0  0  0
    1.2374   -2.7511   -0.4765 N   0  0  0  0  0  0  0  0  0  0  0  0
    2.5874   -2.6573   -0.4190 C   0  0  0  0  0  0  0  0  0  0  0  0
    3.4028   -3.7984   -0.6496 C   0  0  0  0  0  0  0  0  0  0  0  0
    4.7718   -3.7027   -0.5235 C   0  0  0  0  0  0  0  0  0  0  0  0
    5.3881   -2.4688   -0.1637 C   0  0  0  0  0  0  0  0  0  0  0  0
    6.8136   -2.4075   -0.0364 N   0  0  0  0  0  0  0  0  0  0  0  0
    7.5908   -2.1293   -1.1757 C   0  0  0  0  0  0  0  0  0  0  0  0
    6.9604   -1.8805   -2.4150 C   0  0  0  0  0  0  0  0  0  0  0  0
    7.7039   -1.6003   -3.5576 C   0  0  0  0  0  0  0  0  0  0  0  0
    9.0973   -1.5590   -3.4920 C   0  0  0  0  0  0  0  0  0  0  0  0
    9.7183   -1.8033   -2.2676 C   0  0  0  0  0  0  0  0  0  0  0  0
    9.0016   -2.0914   -1.0959 C   0  0  0  0  0  0  0  0  0  0  0  0
    9.7660   -2.3397    0.2120 C   0  0  1  0  0  0  0  0  0  0  0  0
   10.7370   -3.5339    0.0133 C   0  0  0  0  0  0  0  0  0  0  0  0
   10.5802   -1.0674    0.5691 C   0  0  0  0  0  0  0  0  0  0  0  0
    8.8074   -2.6597    1.3677 C   0  0  0  0  0  0  0  0  0  0  0  0
    9.3319   -2.9370    2.6397 C   0  0  0  0  0  0  0  0  0  0  0  0
    8.5277   -3.2354    3.7391 C   0  0  0  0  0  0  0  0  0  0  0  0
    7.1426   -3.2598    3.5705 C   0  0  0  0  0  0  0  0  0  0  0  0
    6.5872   -2.9866    2.3239 C   0  0  0  0  0  0  0  0  0  0  0  0
    7.4026   -2.6829    1.2113 C   0  0  0  0  0  0  0  0  0  0  0  0
    4.6168   -1.3436    0.0533 C   0  0  0  0  0  0  0  0  0  0  0  0
    3.2045   -1.4135   -0.0813 C   0  0  0  0  0  0  0  0  0  0  0  0
    2.4484   -0.2993    0.0662 N   0  0  0  0  0  0  0  0  0  0  0  0
    1.1379   -0.3824   -0.0607 C   0  0  0  0  0  0  0  0  0  0  0  0
    0.4058    0.9173   -0.0387 C   0  0  0  0  0  0  0  0  0  0  0  0
   -0.6516    1.1946   -0.9232 C   0  0  0  0  0  0  0  0  0  0  0  0
   -1.2554    2.4524   -0.9388 C   0  0  0  0  0  0  0  0  0  0  0  0
   -0.8197    3.4586   -0.0672 C   0  0  0  0  0  0  0  0  0  0  0  0
   -1.4338    4.7534   -0.0912 N   0  0  0  0  0  0  0  0  0  0  0  0
   -2.5221    5.0151    0.7595 C   0  0  0  0  0  0  0  0  0  0  0  0
   -3.0059    4.0015    1.6162 C   0  0  0  0  0  0  0  0  0  0  0  0
   -4.0794    4.2323    2.4712 C   0  0  0  0  0  0  0  0  0  0  0  0
   -4.6996    5.4825    2.4932 C   0  0  0  0  0  0  0  0  0  0  0  0
   -4.2235    6.4816    1.6449 C   0  0  0  0  0  0  0  0  0  0  0  0
   -3.1445    6.2848    0.7693 C   0  0  0  0  0  0  0  0  0  0  0  0
   -2.6875    7.4395   -0.1335 C   0  0  1  0  0  0  0  0  0  0  0  0
   -3.8711    7.8715   -1.0393 C   0  0  0  0  0  0  0  0  0  0  0  0
   -2.2560    8.6363    0.7558 C   0  0  0  0  0  0  0  0  0  0  0  0
   -1.5041    7.0225   -1.0180 C   0  0  0  0  0  0  0  0  0  0  0  0
   -0.9558    7.9517   -1.9157 C   0  0  0  0  0  0  0  0  0  0  0  0
    0.1233    7.6526   -2.7466 C   0  0  0  0  0  0  0  0  0  0  0  0
    0.6848    6.3764   -2.6836 C   0  0  0  0  0  0  0  0  0  0  0  0
    0.1666    5.4292   -1.8055 C   0  0  0  0  0  0  0  0  0  0  0  0
   -0.9286    5.7323   -0.9663 C   0  0  0  0  0  0  0  0  0  0  0  0
    0.2351    3.1913    0.8156 C   0  0  0  0  0  0  0  0  0  0  0  0
    0.8465    1.9385    0.8221 C   0  0  0  0  0  0  0  0  0  0  0  0
   -1.5680   -2.8142   -1.0810 C   0  0  0  0  0  0  0  0  0  0  0  0
   -2.9314   -3.0949   -1.0036 C   0  0  0  0  0  0  0  0  0  0  0  0
   -6.0379   -1.9943   -0.6437 C   0  0  0  0  0  0  0  0  0  0  0  0
   -5.5752   -0.9009   -1.4091 C   0  0  0  0  0  0  0  0  0  0  0  0
   -6.4579   -0.0981   -2.1254 C   0  0  0  0  0  0  0  0  0  0  0  0
   -7.8272   -0.3662   -2.0969 C   0  0  0  0  0  0  0  0  0  0  0  0
   -8.2833   -1.4451   -1.3403 C   0  0  0  0  0  0  0  0  0  0  0  0
   -7.4231   -2.2750   -0.6046 C   0  0  0  0  0  0  0  0  0  0  0  0
   -9.8527   -2.3517    0.7100 H   0  0  0  0  0  0  0  0  0  0  0  0
   -8.5602   -2.2060    1.9257 H   0  0  0  0  0  0  0  0  0  0  0  0
   -9.5033   -3.7109    1.7954 H   0  0  0  0  0  0  0  0  0  0  0  0
   -9.5261   -3.9123   -1.3330 H   0  0  0  0  0  0  0  0  0  0  0  0
   -9.1684   -5.2682   -0.2411 H   0  0  0  0  0  0  0  0  0  0  0  0
   -8.0076   -4.8241   -1.5159 H   0  0  0  0  0  0  0  0  0  0  0  0
   -8.3227   -5.5747    1.8407 H   0  0  0  0  0  0  0  0  0  0  0  0
   -6.6525   -6.8919    3.0899 H   0  0  0  0  0  0  0  0  0  0  0  0
   -4.2221   -6.2745    2.9146 H   0  0  0  0  0  0  0  0  0  0  0  0
   -3.5373   -4.3754    1.5126 H   0  0  0  0  0  0  0  0  0  0  0  0
   -3.7450   -1.1442    1.6656 H   0  0  0  0  0  0  0  0  0  0  0  0
   -1.3230   -0.6183    1.5188 H   0  0  0  0  0  0  0  0  0  0  0  0
    2.9121   -4.7380   -0.9108 H   0  0  0  0  0  0  0  0  0  0  0  0
    5.4099   -4.5728   -0.6915 H   0  0  0  0  0  0  0  0  0  0  0  0
    5.8738   -1.9043   -2.4822 H   0  0  0  0  0  0  0  0  0  0  0  0
    7.1853   -1.4122   -4.5012 H   0  0  0  0  0  0  0  0  0  0  0  0
    9.6948   -1.3388   -4.3793 H   0  0  0  0  0  0  0  0  0  0  0  0
   10.8088   -1.7669   -2.2203 H   0  0  0  0  0  0  0  0  0  0  0  0
   11.4519   -3.3355   -0.7994 H   0  0  0  0  0  0  0  0  0  0  0  0
   11.3203   -3.7295    0.9257 H   0  0  0  0  0  0  0  0  0  0  0  0
   10.1818   -4.4504   -0.2383 H   0  0  0  0  0  0  0  0  0  0  0  0
   11.1524   -1.2097    1.4985 H   0  0  0  0  0  0  0  0  0  0  0  0
   11.2965   -0.8170   -0.2282 H   0  0  0  0  0  0  0  0  0  0  0  0
    9.9127   -0.2037    0.7098 H   0  0  0  0  0  0  0  0  0  0  0  0
   10.4153   -2.9178    2.7767 H   0  0  0  0  0  0  0  0  0  0  0  0
    8.9786   -3.4452    4.7116 H   0  0  0  0  0  0  0  0  0  0  0  0
    6.4835   -3.4911    4.4112 H   0  0  0  0  0  0  0  0  0  0  0  0
    5.5044   -3.0070    2.2102 H   0  0  0  0  0  0  0  0  0  0  0  0
    5.0727   -0.3875    0.3149 H   0  0  0  0  0  0  0  0  0  0  0  0
   -0.9939    0.4306   -1.6231 H   0  0  0  0  0  0  0  0  0  0  0  0
   -2.0663    2.6676   -1.6376 H   0  0  0  0  0  0  0  0  0  0  0  0
   -2.5335    3.0204    1.6087 H   0  0  0  0  0  0  0  0  0  0  0  0
   -4.4299    3.4263    3.1211 H   0  0  0  0  0  0  0  0  0  0  0  0
   -5.5430    5.6792    3.1586 H   0  0  0  0  0  0  0  0  0  0  0  0
   -4.7125    7.4580    1.6634 H   0  0  0  0  0  0  0  0  0  0  0  0
   -3.5854    8.7064   -1.6971 H   0  0  0  0  0  0  0  0  0  0  0  0
   -4.2010    7.0357   -1.6750 H   0  0  0  0  0  0  0  0  0  0  0  0
   -4.7322    8.2025   -0.4390 H   0  0  0  0  0  0  0  0  0  0  0  0
   -1.9340    9.4923    0.1434 H   0  0  0  0  0  0  0  0  0  0  0  0
   -3.0854    8.9777    1.3939 H   0  0  0  0  0  0  0  0  0  0  0  0
   -1.4180    8.3533    1.4108 H   0  0  0  0  0  0  0  0  0  0  0  0
   -1.3902    8.9526   -1.9664 H   0  0  0  0  0  0  0  0  0  0  0  0
    0.5186    8.4069   -3.4306 H   0  0  0  0  0  0  0  0  0  0  0  0
    1.5330    6.1096   -3.3192 H   0  0  0  0  0  0  0  0  0  0  0  0
    0.6169    4.4385   -1.7679 H   0  0  0  0  0  0  0  0  0  0  0  0
    0.5772    3.9786    1.4907 H   0  0  0  0  0  0  0  0  0  0  0  0
    1.6858    1.7384    1.4900 H   0  0  0  0  0  0  0  0  0  0  0  0
   -0.9460   -3.3034   -1.8325 H   0  0  0  0  0  0  0  0  0  0  0  0
   -3.3949   -3.7927   -1.7043 H   0  0  0  0  0  0  0  0  0  0  0  0
   -4.5098   -0.6781   -1.4393 H   0  0  0  0  0  0  0  0  0  0  0  0
   -6.0678    0.7412   -2.7069 H   0  0  0  0  0  0  0  0  0  0  0  0
   -8.5324    0.2543   -2.6541 H   0  0  0  0  0  0  0  0  0  0  0  0
   -9.3556   -1.6518   -1.3216 H   0  0  0  0  0  0  0  0  0  0  0  0
  2  1  1  1
  1 71  1  0
  1 72  1  0
  1 73  1  0
  2  3  1  0
  2  4  1  0
  2 70  1  0
  3 74  1  0
  3 75  1  0
  3 76  1  0
  4  5  1  0
  4  9  2  0
  5  6  2  0
  5 77  1  0
  6  7  1  0
  6 78  1  0
  7  8  2  0
  7 79  1  0
  8  9  1  0
  8 80  1  0
  9 10  1  0
 10 11  1  0
 10 65  1  0
 11 12  2  0
 11 64  1  0
 12 13  1  0
 12 81  1  0
 13 14  2  0
 13 82  1  0
 14 15  1  0
 14 63  1  0
 15 16  2  0
 15 40  1  0
 16 17  1  0
 17 18  2  0
 17 38  1  0
 18 19  1  0
 18 83  1  0
 19 20  2  0
 19 84  1  0
 20 21  1  0
 20 37  1  0
 21 22  1  0
 21 36  1  0
 22 23  2  0
 22 27  1  0
 23 24  1  0
 23 85  1  0
 24 25  2  0
 24 86  1  0
 25 26  1  0
 25 87  1  0
 26 27  2  0
 26 88  1  0
 27 28  1  0
 28 29  1  6
 28 30  1  0
 28 31  1  0
 29 89  1  0
 29 90  1  0
 29 91  1  0
 30 92  1  0
 30 93  1  0
 30 94  1  0
 31 32  2  0
 31 36  1  0
 32 33  1  0
 32 95  1  0
 33 34  2  0
 33 96  1  0
 34 35  1  0
 34 97  1  0
 35 36  2  0
 35 98  1  0
 37 38  2  0
 37 99  1  0
 38 39  1  0
 39 40  2  0
 40 41  1  0
 41 42  2  0
 41 62  1  0
 42 43  1  0
 42100  1  0
 43 44  2  0
 43101  1  0
 44 45  1  0
 44 61  1  0
 45 46  1  0
 45 60  1  0
 46 47  2  0
 46 51  1  0
 47 48  1  0
 47102  1  0
 48 49  2  0
 48103  1  0
 49 50  1  0
 49104  1  0
 50 51  2  0
 50105  1  0
 51 52  1  0
 52 53  1  6
 52 54  1  0
 52 55  1  0
 53106  1  0
 53107  1  0
 53108  1  0
 54109  1  0
 54110  1  0
 54111  1  0
 55 56  2  0
 55 60  1  0
 56 57  1  0
 56112  1  0
 57 58  2  0
 57113  1  0
 58 59  1  0
 58114  1  0
 59 60  2  0
 59115  1  0
 61 62  2  0
 61116  1  0
 62117  1  0
 63 64  2  0
 63118  1  0
 64119  1  0
 65 66  1  0
 65 70  2  0
 66 67  2  0
 66120  1  0
 67 68  1  0
 67121  1  0
 68 69  2  0
 68122  1  0
 69 70  1  0
 69123  1  0
M  END

