
     RDKit          3D

 75 84  0  0  0  0  0  0  0  0999 V2000
    1.2221   -1.0657    0.5482 O   0  0  0  0  0  0  0  0  0  0  0  0
    2.4550   -0.2207    0.3981 P   0  0  2  0  0  0  0  0  0  0  0  0
    3.5154   -0.2979    1.8875 C   0  0  0  0  0  0  0  0  0  0  0  0
    4.7232    0.4079    2.0116 C   0  0  0  0  0  0  0  0  0  0  0  0
    5.4796    0.2962    3.1797 C   0  0  0  0  0  0  0  0  0  0  0  0
    5.0348   -0.5192    4.2275 C   0  0  0  0  0  0  0  0  0  0  0  0
    3.8328   -1.2220    4.1066 C   0  0  0  0  0  0  0  0  0  0  0  0
    3.0715   -1.1133    2.9386 C   0  0  0  0  0  0  0  0  0  0  0  0
    2.2590    1.5468   -0.0479 C   0  0  0  0  0  0  0  0  0  0  0  0
    1.4921    2.5158    0.5962 C   0  0  0  0  0  0  0  0  0  0  0  0
    1.4498    3.8146    0.0774 C   0  0  0  0  0  0  0  0  0  0  0  0
    2.1766    4.1373   -1.0803 C   0  0  0  0  0  0  0  0  0  0  0  0
    2.1549    5.4630   -1.6291 N   0  0  0  0  0  0  0  0  0  0  0  0
    1.0974    5.8114   -2.5096 C   0  0  0  0  0  0  0  0  0  0  0  0
   -0.0862    5.0543   -2.5749 C   0  0  0  0  0  0  0  0  0  0  0  0
   -1.1193    5.4049   -3.4487 C   0  0  0  0  0  0  0  0  0  0  0  0
   -1.0096    6.5348   -4.2588 C   0  0  0  0  0  0  0  0  0  0  0  0
    0.1562    7.3028   -4.1985 C   0  0  0  0  0  0  0  0  0  0  0  0
    1.2098    6.9367   -3.3554 C   0  0  0  0  0  0  0  0  0  0  0  0
    2.7427    7.8314   -3.4587 S   0  0  0  0  0  0  0  0  0  0  0  0
    3.3130    7.6246   -1.7879 C   0  0  0  0  0  0  0  0  0  0  0  0
    4.1404    8.6057   -1.2332 C   0  0  0  0  0  0  0  0  0  0  0  0
    4.7381    8.4142    0.0152 C   0  0  0  0  0  0  0  0  0  0  0  0
    4.4813    7.2352    0.7143 C   0  0  0  0  0  0  0  0  0  0  0  0
    3.6243    6.2666    0.1837 C   0  0  0  0  0  0  0  0  0  0  0  0
    3.0221    6.4399   -1.0757 C   0  0  0  0  0  0  0  0  0  0  0  0
    2.9393    3.1579   -1.7309 C   0  0  0  0  0  0  0  0  0  0  0  0
    2.9785    1.8556   -1.2219 C   0  0  0  0  0  0  0  0  0  0  0  0
    3.7008    0.6932   -1.7980 C   0  0  0  0  0  0  0  0  0  0  0  0
    4.4786    0.6783   -2.9607 C   0  0  0  0  0  0  0  0  0  0  0  0
    5.0682   -0.5191   -3.3881 C   0  0  0  0  0  0  0  0  0  0  0  0
    5.8582   -0.5058   -4.5861 N   0  0  0  0  0  0  0  0  0  0  0  0
    7.2697   -0.4238   -4.4649 C   0  0  0  0  0  0  0  0  0  0  0  0
    7.9228   -0.6813   -3.2458 C   0  0  0  0  0  0  0  0  0  0  0  0
    9.3139   -0.5951   -3.1387 C   0  0  0  0  0  0  0  0  0  0  0  0
   10.0919   -0.2756   -4.2509 C   0  0  0  0  0  0  0  0  0  0  0  0
    9.4590   -0.0228   -5.4706 C   0  0  0  0  0  0  0  0  0  0  0  0
    8.0657   -0.0692   -5.5768 C   0  0  0  0  0  0  0  0  0  0  0  0
    7.3065    0.4579   -7.0950 S   0  0  0  0  0  0  0  0  0  0  0  0
    5.8333   -0.5359   -7.0454 C   0  0  0  0  0  0  0  0  0  0  0  0
    5.2309   -0.9083   -8.2508 C   0  0  0  0  0  0  0  0  0  0  0  0
    3.9922   -1.5549   -8.2603 C   0  0  0  0  0  0  0  0  0  0  0  0
    3.3703   -1.8447   -7.0462 C   0  0  0  0  0  0  0  0  0  0  0  0
    3.9850   -1.5113   -5.8359 C   0  0  0  0  0  0  0  0  0  0  0  0
    5.2273   -0.8520   -5.8095 C   0  0  0  0  0  0  0  0  0  0  0  0
    4.8768   -1.7026   -2.6566 C   0  0  0  0  0  0  0  0  0  0  0  0
    4.1067   -1.6921   -1.4885 C   0  0  0  0  0  0  0  0  0  0  0  0
    3.5307   -0.4976   -1.0604 C   0  0  0  0  0  0  0  0  0  0  0  0
    5.0762    1.0471    1.1974 H   0  0  0  0  0  0  0  0  0  0  0  0
    6.4191    0.8466    3.2746 H   0  0  0  0  0  0  0  0  0  0  0  0
    5.6290   -0.6053    5.1410 H   0  0  0  0  0  0  0  0  0  0  0  0
    3.4851   -1.8582    4.9247 H   0  0  0  0  0  0  0  0  0  0  0  0
    2.1288   -1.6536    2.8225 H   0  0  0  0  0  0  0  0  0  0  0  0
    0.9237    2.2656    1.4957 H   0  0  0  0  0  0  0  0  0  0  0  0
    0.8512    4.5867    0.5655 H   0  0  0  0  0  0  0  0  0  0  0  0
   -0.2018    4.1734   -1.9446 H   0  0  0  0  0  0  0  0  0  0  0  0
   -2.0195    4.7864   -3.4822 H   0  0  0  0  0  0  0  0  0  0  0  0
   -1.8187    6.8188   -4.9353 H   0  0  0  0  0  0  0  0  0  0  0  0
    0.2680    8.1903   -4.8262 H   0  0  0  0  0  0  0  0  0  0  0  0
    4.3289    9.5189   -1.8033 H   0  0  0  0  0  0  0  0  0  0  0  0
    5.3979    9.1790    0.4306 H   0  0  0  0  0  0  0  0  0  0  0  0
    4.9404    7.0608    1.6905 H   0  0  0  0  0  0  0  0  0  0  0  0
    3.4313    5.3601    0.7560 H   0  0  0  0  0  0  0  0  0  0  0  0
    3.4870    3.4379   -2.6327 H   0  0  0  0  0  0  0  0  0  0  0  0
    4.6382    1.5799   -3.5550 H   0  0  0  0  0  0  0  0  0  0  0  0
    7.3393   -0.9424   -2.3640 H   0  0  0  0  0  0  0  0  0  0  0  0
    9.7856   -0.7916   -2.1727 H   0  0  0  0  0  0  0  0  0  0  0  0
   11.1800   -0.2185   -4.1753 H   0  0  0  0  0  0  0  0  0  0  0  0
   10.0456    0.2357   -6.3557 H   0  0  0  0  0  0  0  0  0  0  0  0
    5.7363   -0.6658   -9.1889 H   0  0  0  0  0  0  0  0  0  0  0  0
    3.5212   -1.8239   -9.2083 H   0  0  0  0  0  0  0  0  0  0  0  0
    2.3991   -2.3450   -7.0284 H   0  0  0  0  0  0  0  0  0  0  0  0
    3.4834   -1.7595   -4.9013 H   0  0  0  0  0  0  0  0  0  0  0  0
    5.3332   -2.6294   -3.0106 H   0  0  0  0  0  0  0  0  0  0  0  0
    3.9559   -2.6147   -0.9221 H   0  0  0  0  0  0  0  0  0  0  0  0
  1  2  2  0
  2  3  1  1
  2  9  1  0
  2 48  1  0
  3  4  2  0
  3  8  1  0
  4  5  1  0
  4 49  1  0
  5  6  2  0
  5 50  1  0
  6  7  1  0
  6 51  1  0
  7  8  2  0
  7 52  1  0
  8 53  1  0
  9 10  2  0
  9 28  1  0
 10 11  1  0
 10 54  1  0
 11 12  2  0
 11 55  1  0
 12 13  1  0
 12 27  1  0
 13 14  1  0
 13 26  1  0
 14 15  2  0
 14 19  1  0
 15 16  1  0
 15 56  1  0
 16 17  2  0
 16 57  1  0
 17 18  1  0
 17 58  1  0
 18 19  2  0
 18 59  1  0
 19 20  1  0
 20 21  1  0
 21 22  2  0
 21 26  1  0
 22 23  1  0
 22 60  1  0
 23 24  2  0
 23 61  1  0
 24 25  1  0
 24 62  1  0
 25 26  2  0
 25 63  1  0
 27 28  2  0
 27 64  1  0
 28 29  1  0
 29 30  2  0
 29 48  1  0
 30 31  1  0
 30 65  1  0
 31 32  1  0
 31 46  2  0
 32 33  1  0
 32 45  1  0
 33 34  2  0
 33 38  1  0
 34 35  1  0
 34 66  1  0
 35 36  2  0
 35 67  1  0
 36 37  1  0
 36 68  1  0
 37 38  2  0
 37 69  1  0
 38 39  1  0
 39 40  1  0
 40 41  2  0
 40 45  1  0
 41 42  1  0
 41 70  1  0
 42 43  2  0
 42 71  1  0
 43 44  1  0
 43 72  1  0
 44 45  2  0
 44 73  1  0
 46 47  1  0
 46 74  1  0
 47 48  2  0
 47 75  1  0
M  END

