
     RDKit          3D

 33 36  0  0  0  0  0  0  0  0999 V2000
    0.9177    0.5894    0.2338 C   0  0  0  0  0  0  0  0  0  0  0  0
    2.3666    0.8461    0.6108 C   0  0  0  0  0  0  0  0  0  0  0  0
    2.6856    1.2338    1.7176 O   0  0  0  0  0  0  0  0  0  0  0  0
    3.2793    0.6027   -0.4120 N   0  0  0  0  0  0  0  0  0  0  0  0
    4.6637    0.7265   -0.4294 C   0  0  0  0  0  0  0  0  0  0  0  0
    5.3148    0.3934   -1.6495 C   0  0  0  0  0  0  0  0  0  0  0  0
    6.7112    0.4820   -1.7764 C   0  0  0  0  0  0  0  0  0  0  0  0
    7.3985    0.1560   -2.9834 C   0  0  0  0  0  0  0  0  0  0  0  0
    8.7738    0.2545   -3.0728 C   0  0  0  0  0  0  0  0  0  0  0  0
    9.5667    0.6847   -1.9672 C   0  0  0  0  0  0  0  0  0  0  0  0
   10.9758    0.7939   -2.0330 C   0  0  0  0  0  0  0  0  0  0  0  0
   11.7146    1.2217   -0.9192 C   0  0  0  0  0  0  0  0  0  0  0  0
   11.0809    1.5523    0.2865 C   0  0  0  0  0  0  0  0  0  0  0  0
    9.6730    1.4623    0.4114 C   0  0  0  0  0  0  0  0  0  0  0  0
    8.9832    1.7878    1.6171 C   0  0  0  0  0  0  0  0  0  0  0  0
    7.6086    1.6915    1.7134 C   0  0  0  0  0  0  0  0  0  0  0  0
    6.8162    1.2611    0.6072 C   0  0  0  0  0  0  0  0  0  0  0  0
    5.4143    1.1588    0.6939 C   0  0  0  0  0  0  0  0  0  0  0  0
    7.4948    0.9236   -0.6331 C   0  0  0  0  0  0  0  0  0  0  0  0
    8.8951    1.0223   -0.7288 C   0  0  0  0  0  0  0  0  0  0  0  0
    0.5033   -0.1607    0.9249 H   0  0  0  0  0  0  0  0  0  0  0  0
    0.7699    0.2443   -0.7999 H   0  0  0  0  0  0  0  0  0  0  0  0
    0.3457    1.5174    0.3872 H   0  0  0  0  0  0  0  0  0  0  0  0
    2.8767    0.2834   -1.2865 H   0  0  0  0  0  0  0  0  0  0  0  0
    4.7210    0.0616   -2.5060 H   0  0  0  0  0  0  0  0  0  0  0  0
    6.8148   -0.1766   -3.8457 H   0  0  0  0  0  0  0  0  0  0  0  0
    9.2795   -0.0006   -4.0079 H   0  0  0  0  0  0  0  0  0  0  0  0
   11.4860    0.5402   -2.9653 H   0  0  0  0  0  0  0  0  0  0  0  0
   12.8025    1.2982   -0.9936 H   0  0  0  0  0  0  0  0  0  0  0  0
   11.6706    1.8839    1.1444 H   0  0  0  0  0  0  0  0  0  0  0  0
    9.5687    2.1203    2.4784 H   0  0  0  0  0  0  0  0  0  0  0  0
    7.1024    1.9463    2.6477 H   0  0  0  0  0  0  0  0  0  0  0  0
    4.8978    1.4085    1.6169 H   0  0  0  0  0  0  0  0  0  0  0  0
  1  2  1  0
  1 21  1  0
  1 22  1  0
  1 23  1  0
  2  3  2  0
  2  4  1  0
  4  5  1  0
  4 24  1  0
  5  6  2  0
  5 18  1  0
  6  7  1  0
  6 25  1  0
  7  8  2  0
  7 19  1  0
  8  9  1  0
  8 26  1  0
  9 10  2  0
  9 27  1  0
 10 11  1  0
 10 20  1  0
 11 12  2  0
 11 28  1  0
 12 13  1  0
 12 29  1  0
 13 14  2  0
 13 30  1  0
 14 15  1  0
 14 20  1  0
 15 16  2  0
 15 31  1  0
 16 17  1  0
 16 32  1  0
 17 18  2  0
 17 19  1  0
 18 33  1  0
 19 20  2  0
M  END

