
     RDKit          3D

 73 79  0  0  0  0  0  0  0  0999 V2000
    8.7425   -1.2036   -2.2611 C   0  0  0  0  0  0  0  0  0  0  0  0
    8.4756   -0.3440   -1.0038 C   0  0  2  0  0  0  0  0  0  0  0  0
    9.0869    1.0493   -1.2387 C   0  0  0  0  0  0  0  0  0  0  0  0
    9.1846   -0.9820    0.2134 C   0  0  0  0  0  0  0  0  0  0  0  0
    6.9586   -0.2787   -0.7384 C   0  0  0  0  0  0  0  0  0  0  0  0
    6.2341   -1.4613   -0.4987 C   0  0  0  0  0  0  0  0  0  0  0  0
    4.8621   -1.4463   -0.2559 C   0  0  0  0  0  0  0  0  0  0  0  0
    4.1627   -0.2357   -0.2394 C   0  0  0  0  0  0  0  0  0  0  0  0
    2.7461   -0.2144    0.0129 N   0  0  0  0  0  0  0  0  0  0  0  0
    2.3067   -0.6618    1.2841 C   0  0  0  0  0  0  0  0  0  0  0  0
    3.1144   -1.0475    2.1206 O   0  0  0  0  0  0  0  0  0  0  0  0
    0.8591   -0.6285    1.5217 C   0  0  0  0  0  0  0  0  0  0  0  0
    0.3647   -1.0540    2.7745 C   0  0  0  0  0  0  0  0  0  0  0  0
   -1.0021   -1.0367    3.0235 C   0  0  0  0  0  0  0  0  0  0  0  0
   -1.9085   -0.6018    2.0444 C   0  0  0  0  0  0  0  0  0  0  0  0
   -1.4525   -0.1670    0.7753 C   0  0  0  0  0  0  0  0  0  0  0  0
   -2.2874    0.2912   -0.2842 C   0  0  0  0  0  0  0  0  0  0  0  0
   -3.7373    0.3277   -0.0846 N   0  0  0  0  0  0  0  0  0  0  0  0
   -4.4920   -0.7861   -0.4167 C   0  0  0  0  0  0  0  0  0  0  0  0
   -3.8320   -1.9404   -0.9240 C   0  0  0  0  0  0  0  0  0  0  0  0
   -4.5540   -3.0664   -1.2687 C   0  0  0  0  0  0  0  0  0  0  0  0
   -5.9502   -3.0756   -1.1212 C   0  0  0  0  0  0  0  0  0  0  0  0
   -6.6032   -1.9472   -0.6228 C   0  0  0  0  0  0  0  0  0  0  0  0
   -5.9094   -0.7891   -0.2592 C   0  0  0  0  0  0  0  0  0  0  0  0
   -6.6696    0.4157    0.2812 C   0  0  1  0  0  0  0  0  0  0  0  0
   -7.6836    0.8975   -0.7970 C   0  0  0  0  0  0  0  0  0  0  0  0
   -7.4380   -0.0069    1.5668 C   0  0  0  0  0  0  0  0  0  0  0  0
   -5.7289    1.5649    0.6214 C   0  0  0  0  0  0  0  0  0  0  0  0
   -6.2422    2.7581    1.1390 C   0  0  0  0  0  0  0  0  0  0  0  0
   -5.4202    3.8385    1.4632 C   0  0  0  0  0  0  0  0  0  0  0  0
   -4.0327    3.7429    1.2712 C   0  0  0  0  0  0  0  0  0  0  0  0
   -3.4861    2.5818    0.7603 C   0  0  0  0  0  0  0  0  0  0  0  0
   -4.3188    1.4768    0.4270 C   0  0  0  0  0  0  0  0  0  0  0  0
   -1.7826    0.7134   -1.5265 C   0  0  0  0  0  0  0  0  0  0  0  0
   -0.4164    0.6970   -1.7611 C   0  0  0  0  0  0  0  0  0  0  0  0
    0.4692    0.2532   -0.7509 C   0  0  0  0  0  0  0  0  0  0  0  0
   -0.0297   -0.1798    0.5103 C   0  0  0  0  0  0  0  0  0  0  0  0
    1.9063    0.2512   -1.0298 C   0  0  0  0  0  0  0  0  0  0  0  0
    2.3825    0.6228   -2.0977 O   0  0  0  0  0  0  0  0  0  0  0  0
    4.8609    0.9488   -0.4722 C   0  0  0  0  0  0  0  0  0  0  0  0
    6.2363    0.9242   -0.7203 C   0  0  0  0  0  0  0  0  0  0  0  0
    8.2504   -0.7698   -3.1462 H   0  0  0  0  0  0  0  0  0  0  0  0
    9.8247   -1.2639   -2.4662 H   0  0  0  0  0  0  0  0  0  0  0  0
    8.3675   -2.2314   -2.1417 H   0  0  0  0  0  0  0  0  0  0  0  0
    8.9547    1.7078   -0.3659 H   0  0  0  0  0  0  0  0  0  0  0  0
    8.6437    1.5495   -2.1140 H   0  0  0  0  0  0  0  0  0  0  0  0
   10.1693    0.9566   -1.4230 H   0  0  0  0  0  0  0  0  0  0  0  0
    8.8216   -2.0022    0.4103 H   0  0  0  0  0  0  0  0  0  0  0  0
    9.0147   -0.3869    1.1247 H   0  0  0  0  0  0  0  0  0  0  0  0
   10.2724   -1.0411    0.0407 H   0  0  0  0  0  0  0  0  0  0  0  0
    6.7483   -2.4255   -0.4993 H   0  0  0  0  0  0  0  0  0  0  0  0
    4.3284   -2.3788   -0.0670 H   0  0  0  0  0  0  0  0  0  0  0  0
    1.0847   -1.3896    3.5215 H   0  0  0  0  0  0  0  0  0  0  0  0
   -1.3822   -1.3661    3.9943 H   0  0  0  0  0  0  0  0  0  0  0  0
   -2.9759   -0.6011    2.2709 H   0  0  0  0  0  0  0  0  0  0  0  0
   -2.7511   -1.9200   -1.0324 H   0  0  0  0  0  0  0  0  0  0  0  0
   -4.0332   -3.9449   -1.6539 H   0  0  0  0  0  0  0  0  0  0  0  0
   -6.5280   -3.9614   -1.3932 H   0  0  0  0  0  0  0  0  0  0  0  0
   -7.6886   -1.9755   -0.5158 H   0  0  0  0  0  0  0  0  0  0  0  0
   -7.1645    1.2021   -1.7179 H   0  0  0  0  0  0  0  0  0  0  0  0
   -8.3928    0.0969   -1.0519 H   0  0  0  0  0  0  0  0  0  0  0  0
   -8.2649    1.7562   -0.4312 H   0  0  0  0  0  0  0  0  0  0  0  0
   -8.1429   -0.8223    1.3503 H   0  0  0  0  0  0  0  0  0  0  0  0
   -8.0162    0.8361    1.9713 H   0  0  0  0  0  0  0  0  0  0  0  0
   -6.7424   -0.3517    2.3460 H   0  0  0  0  0  0  0  0  0  0  0  0
   -7.3175    2.8532    1.2964 H   0  0  0  0  0  0  0  0  0  0  0  0
   -5.8598    4.7534    1.8660 H   0  0  0  0  0  0  0  0  0  0  0  0
   -3.3805    4.5807    1.5246 H   0  0  0  0  0  0  0  0  0  0  0  0
   -2.4140    2.4938    0.6079 H   0  0  0  0  0  0  0  0  0  0  0  0
   -2.4732    1.0533   -2.3021 H   0  0  0  0  0  0  0  0  0  0  0  0
    0.0062    1.0198   -2.7126 H   0  0  0  0  0  0  0  0  0  0  0  0
    4.3245    1.8988   -0.4695 H   0  0  0  0  0  0  0  0  0  0  0  0
    6.7403    1.8738   -0.9010 H   0  0  0  0  0  0  0  0  0  0  0  0
  2  1  1  6
  1 42  1  0
  1 43  1  0
  1 44  1  0
  2  3  1  0
  2  4  1  0
  2  5  1  0
  3 45  1  0
  3 46  1  0
  3 47  1  0
  4 48  1  0
  4 49  1  0
  4 50  1  0
  5  6  2  0
  5 41  1  0
  6  7  1  0
  6 51  1  0
  7  8  2  0
  7 52  1  0
  8  9  1  0
  8 40  1  0
  9 10  1  0
  9 38  1  0
 10 11  2  0
 10 12  1  0
 12 13  2  0
 12 37  1  0
 13 14  1  0
 13 53  1  0
 14 15  2  0
 14 54  1  0
 15 16  1  0
 15 55  1  0
 16 17  1  0
 16 37  2  0
 17 18  1  0
 17 34  2  0
 18 19  1  0
 18 33  1  0
 19 20  2  0
 19 24  1  0
 20 21  1  0
 20 56  1  0
 21 22  2  0
 21 57  1  0
 22 23  1  0
 22 58  1  0
 23 24  2  0
 23 59  1  0
 24 25  1  0
 25 26  1  6
 25 27  1  0
 25 28  1  0
 26 60  1  0
 26 61  1  0
 26 62  1  0
 27 63  1  0
 27 64  1  0
 27 65  1  0
 28 29  2  0
 28 33  1  0
 29 30  1  0
 29 66  1  0
 30 31  2  0
 30 67  1  0
 31 32  1  0
 31 68  1  0
 32 33  2  0
 32 69  1  0
 34 35  1  0
 34 70  1  0
 35 36  2  0
 35 71  1  0
 36 37  1  0
 36 38  1  0
 38 39  2  0
 40 41  2  0
 40 72  1  0
 41 73  1  0
M  END

