
     RDKit          3D

135147  0  0  0  0  0  0  0  0999 V2000
    6.2309    6.8210   12.9429 C   0  0  0  0  0  0  0  0  0  0  0  0
    6.3536    6.7478   11.3971 C   0  0  1  0  0  0  0  0  0  0  0  0
    6.1048    8.1562   10.7949 C   0  0  0  0  0  0  0  0  0  0  0  0
    7.7714    6.2877   11.0296 C   0  0  0  0  0  0  0  0  0  0  0  0
    8.8712    7.0623   11.4302 C   0  0  0  0  0  0  0  0  0  0  0  0
   10.1884    6.7106   11.1374 C   0  0  0  0  0  0  0  0  0  0  0  0
   10.4252    5.5390   10.4162 C   0  0  0  0  0  0  0  0  0  0  0  0
    9.3592    4.7461   10.0034 C   0  0  0  0  0  0  0  0  0  0  0  0
    8.0246    5.1027   10.3006 C   0  0  0  0  0  0  0  0  0  0  0  0
    6.9686    4.2812    9.8712 N   0  0  0  0  0  0  0  0  0  0  0  0
    7.2672    3.0891    9.1286 C   0  0  0  0  0  0  0  0  0  0  0  0
    7.4966    1.8812    9.7961 C   0  0  0  0  0  0  0  0  0  0  0  0
    7.7984    0.7233    9.0747 C   0  0  0  0  0  0  0  0  0  0  0  0
    7.8646    0.7538    7.6718 C   0  0  0  0  0  0  0  0  0  0  0  0
    8.0994   -0.4700    6.8199 C   0  0  0  0  0  0  0  0  0  0  0  0
    7.5865   -0.5199    5.7114 O   0  0  0  0  0  0  0  0  0  0  0  0
    8.9392   -1.6051    7.3182 C   0  0  0  0  0  0  0  0  0  0  0  0
    9.9490   -1.4318    8.2629 C   0  0  0  0  0  0  0  0  0  0  0  0
   10.7926   -2.5075    8.6706 C   0  0  0  0  0  0  0  0  0  0  0  0
   11.7909   -2.2022    9.7037 C   0  0  0  0  0  0  0  0  0  0  0  0
   11.7310   -1.1180   10.3369 O   0  0  0  0  0  0  0  0  0  0  0  0
   12.8919   -3.1458   10.0653 C   0  0  0  0  0  0  0  0  0  0  0  0
   13.5153   -2.9351   11.3224 C   0  0  0  0  0  0  0  0  0  0  0  0
   14.5711   -3.7235   11.7611 C   0  0  0  0  0  0  0  0  0  0  0  0
   15.0574   -4.7445   10.9330 C   0  0  0  0  0  0  0  0  0  0  0  0
   16.1625   -5.5869   11.3891 N   0  0  0  0  0  0  0  0  0  0  0  0
   15.8740   -6.7488   12.0886 C   0  0  0  0  0  0  0  0  0  0  0  0
   14.5144   -7.0864   12.3418 C   0  0  0  0  0  0  0  0  0  0  0  0
   14.1966   -8.2372   13.0367 C   0  0  0  0  0  0  0  0  0  0  0  0
   15.2193   -9.0819   13.4970 C   0  0  0  0  0  0  0  0  0  0  0  0
   16.5539   -8.7564   13.2503 C   0  0  0  0  0  0  0  0  0  0  0  0
   16.9187   -7.6018   12.5516 C   0  0  0  0  0  0  0  0  0  0  0  0
   18.3902   -7.2928   12.3066 C   0  0  1  0  0  0  0  0  0  0  0  0
   19.1139   -7.1644   13.6784 C   0  0  0  0  0  0  0  0  0  0  0  0
   19.0204   -8.4588   11.4907 C   0  0  0  0  0  0  0  0  0  0  0  0
   18.5702   -5.9943   11.5302 C   0  0  0  0  0  0  0  0  0  0  0  0
   19.8544   -5.5448   11.2081 C   0  0  0  0  0  0  0  0  0  0  0  0
   20.0687   -4.3618   10.4996 C   0  0  0  0  0  0  0  0  0  0  0  0
   18.9740   -3.5842   10.0895 C   0  0  0  0  0  0  0  0  0  0  0  0
   17.6883   -3.9930   10.3872 C   0  0  0  0  0  0  0  0  0  0  0  0
   17.4639   -5.1999   11.1078 C   0  0  0  0  0  0  0  0  0  0  0  0
   14.4985   -4.9564    9.6687 C   0  0  0  0  0  0  0  0  0  0  0  0
   13.4331   -4.1632    9.2441 C   0  0  0  0  0  0  0  0  0  0  0  0
   10.5170   -3.7762    8.1105 C   0  0  0  0  0  0  0  0  0  0  0  0
    9.5265   -3.9614    7.1349 C   0  0  0  0  0  0  0  0  0  0  0  0
    9.3346   -5.3585    6.6372 C   0  0  0  0  0  0  0  0  0  0  0  0
    9.7018   -6.3200    7.3002 O   0  0  0  0  0  0  0  0  0  0  0  0
    8.6977   -5.6222    5.2920 C   0  0  0  0  0  0  0  0  0  0  0  0
    8.0519   -6.8585    5.1131 C   0  0  0  0  0  0  0  0  0  0  0  0
    7.4991   -7.2051    3.8827 C   0  0  0  0  0  0  0  0  0  0  0  0
    7.6033   -6.3279    2.7937 C   0  0  0  0  0  0  0  0  0  0  0  0
    7.0440   -6.6884    1.5217 N   0  0  0  0  0  0  0  0  0  0  0  0
    5.7076   -6.3544    1.2411 C   0  0  0  0  0  0  0  0  0  0  0  0
    4.9423   -5.6518    2.1985 C   0  0  0  0  0  0  0  0  0  0  0  0
    3.6168   -5.3097    1.9498 C   0  0  0  0  0  0  0  0  0  0  0  0
    3.0187   -5.6601    0.7381 C   0  0  0  0  0  0  0  0  0  0  0  0
    3.7752   -6.3517   -0.2072 C   0  0  0  0  0  0  0  0  0  0  0  0
    5.1143   -6.7126    0.0087 C   0  0  0  0  0  0  0  0  0  0  0  0
    5.8756   -7.4693   -1.0887 C   0  0  1  0  0  0  0  0  0  0  0  0
    5.1417   -8.8043   -1.3861 C   0  0  0  0  0  0  0  0  0  0  0  0
    5.9042   -6.6014   -2.3751 C   0  0  0  0  0  0  0  0  0  0  0  0
    7.3172   -7.7756   -0.6588 C   0  0  0  0  0  0  0  0  0  0  0  0
    8.1642   -8.4688   -1.5372 C   0  0  0  0  0  0  0  0  0  0  0  0
    9.4845   -8.7866   -1.2201 C   0  0  0  0  0  0  0  0  0  0  0  0
    9.9861   -8.4001    0.0238 C   0  0  0  0  0  0  0  0  0  0  0  0
    9.1753   -7.7107    0.9202 C   0  0  0  0  0  0  0  0  0  0  0  0
    7.8378   -7.3873    0.5978 C   0  0  0  0  0  0  0  0  0  0  0  0
    8.2629   -5.1045    2.9545 C   0  0  0  0  0  0  0  0  0  0  0  0
    8.8019   -4.7516    4.1947 C   0  0  0  0  0  0  0  0  0  0  0  0
    8.7357   -2.8707    6.7219 C   0  0  0  0  0  0  0  0  0  0  0  0
    7.6063    1.9672    7.0098 C   0  0  0  0  0  0  0  0  0  0  0  0
    7.3247    3.1268    7.7278 C   0  0  0  0  0  0  0  0  0  0  0  0
    5.6280    4.6062   10.1366 C   0  0  0  0  0  0  0  0  0  0  0  0
    4.5939    3.7574    9.6815 C   0  0  0  0  0  0  0  0  0  0  0  0
    3.2572    4.0539    9.9292 C   0  0  0  0  0  0  0  0  0  0  0  0
    2.9151    5.2063   10.6388 C   0  0  0  0  0  0  0  0  0  0  0  0
    3.9357    6.0431   11.0887 C   0  0  0  0  0  0  0  0  0  0  0  0
    5.2942    5.7762   10.8580 C   0  0  0  0  0  0  0  0  0  0  0  0
    6.9695    7.5178   13.3681 H   0  0  0  0  0  0  0  0  0  0  0  0
    6.3989    5.8313   13.3941 H   0  0  0  0  0  0  0  0  0  0  0  0
    5.2315    7.1684   13.2469 H   0  0  0  0  0  0  0  0  0  0  0  0
    6.8374    8.8859   11.1721 H   0  0  0  0  0  0  0  0  0  0  0  0
    5.1022    8.5293   11.0538 H   0  0  0  0  0  0  0  0  0  0  0  0
    6.1849    8.1304    9.6975 H   0  0  0  0  0  0  0  0  0  0  0  0
    8.6901    7.9790   11.9963 H   0  0  0  0  0  0  0  0  0  0  0  0
   11.0150    7.3428   11.4697 H   0  0  0  0  0  0  0  0  0  0  0  0
   11.4452    5.2320   10.1711 H   0  0  0  0  0  0  0  0  0  0  0  0
    9.5609    3.8335    9.4448 H   0  0  0  0  0  0  0  0  0  0  0  0
    7.4392    1.8540   10.8862 H   0  0  0  0  0  0  0  0  0  0  0  0
    7.9681   -0.2109    9.6113 H   0  0  0  0  0  0  0  0  0  0  0  0
   10.1506   -0.4623    8.7166 H   0  0  0  0  0  0  0  0  0  0  0  0
   13.1323   -2.1164   11.9329 H   0  0  0  0  0  0  0  0  0  0  0  0
   15.0205   -3.5494   12.7424 H   0  0  0  0  0  0  0  0  0  0  0  0
   13.7289   -6.4285   11.9798 H   0  0  0  0  0  0  0  0  0  0  0  0
   13.1500   -8.4842   13.2222 H   0  0  0  0  0  0  0  0  0  0  0  0
   14.9756   -9.9936   14.0460 H   0  0  0  0  0  0  0  0  0  0  0  0
   17.3317   -9.4284   13.6159 H   0  0  0  0  0  0  0  0  0  0  0  0
   19.0228   -8.0949   14.2566 H   0  0  0  0  0  0  0  0  0  0  0  0
   18.6853   -6.3459   14.2754 H   0  0  0  0  0  0  0  0  0  0  0  0
   20.1852   -6.9622   13.5377 H   0  0  0  0  0  0  0  0  0  0  0  0
   18.9292   -9.4095   12.0348 H   0  0  0  0  0  0  0  0  0  0  0  0
   20.0898   -8.2771   11.3117 H   0  0  0  0  0  0  0  0  0  0  0  0
   18.5235   -8.5719   10.5159 H   0  0  0  0  0  0  0  0  0  0  0  0
   20.7196   -6.1329   11.5176 H   0  0  0  0  0  0  0  0  0  0  0  0
   21.0875   -4.0450   10.2674 H   0  0  0  0  0  0  0  0  0  0  0  0
   19.1313   -2.6569    9.5360 H   0  0  0  0  0  0  0  0  0  0  0  0
   16.8351   -3.3974   10.0740 H   0  0  0  0  0  0  0  0  0  0  0  0
   14.8981   -5.7324    9.0110 H   0  0  0  0  0  0  0  0  0  0  0  0
   13.0418   -4.3251    8.2410 H   0  0  0  0  0  0  0  0  0  0  0  0
   11.0413   -4.6703    8.4421 H   0  0  0  0  0  0  0  0  0  0  0  0
    8.0012   -7.5431    5.9618 H   0  0  0  0  0  0  0  0  0  0  0  0
    6.9870   -8.1607    3.7499 H   0  0  0  0  0  0  0  0  0  0  0  0
    5.3950   -5.3699    3.1479 H   0  0  0  0  0  0  0  0  0  0  0  0
    3.0536   -4.7642    2.7114 H   0  0  0  0  0  0  0  0  0  0  0  0
    1.9791   -5.3980    0.5286 H   0  0  0  0  0  0  0  0  0  0  0  0
    3.3050   -6.6228   -1.1551 H   0  0  0  0  0  0  0  0  0  0  0  0
    4.1060   -8.6252   -1.7125 H   0  0  0  0  0  0  0  0  0  0  0  0
    5.1093   -9.4398   -0.4880 H   0  0  0  0  0  0  0  0  0  0  0  0
    5.6482   -9.3683   -2.1841 H   0  0  0  0  0  0  0  0  0  0  0  0
    4.8854   -6.3738   -2.7242 H   0  0  0  0  0  0  0  0  0  0  0  0
    6.4279   -7.1191   -3.1933 H   0  0  0  0  0  0  0  0  0  0  0  0
    6.4209   -5.6475   -2.1898 H   0  0  0  0  0  0  0  0  0  0  0  0
    7.7746   -8.7732   -2.5113 H   0  0  0  0  0  0  0  0  0  0  0  0
   10.1090   -9.3274   -1.9349 H   0  0  0  0  0  0  0  0  0  0  0  0
   11.0163   -8.6336    0.3053 H   0  0  0  0  0  0  0  0  0  0  0  0
    9.5813   -7.4162    1.8867 H   0  0  0  0  0  0  0  0  0  0  0  0
    8.3521   -4.4294    2.1008 H   0  0  0  0  0  0  0  0  0  0  0  0
    9.3192   -3.7971    4.2999 H   0  0  0  0  0  0  0  0  0  0  0  0
    7.9409   -2.9740    5.9863 H   0  0  0  0  0  0  0  0  0  0  0  0
    7.6277    1.9768    5.9183 H   0  0  0  0  0  0  0  0  0  0  0  0
    7.1397    4.0717    7.2121 H   0  0  0  0  0  0  0  0  0  0  0  0
    4.8446    2.8548    9.1265 H   0  0  0  0  0  0  0  0  0  0  0  0
    2.4823    3.3757    9.5621 H   0  0  0  0  0  0  0  0  0  0  0  0
    1.8701    5.4526   10.8405 H   0  0  0  0  0  0  0  0  0  0  0  0
    3.6644    6.9435   11.6443 H   0  0  0  0  0  0  0  0  0  0  0  0
  2  1  1  1
  1 79  1  0
  1 80  1  0
  1 81  1  0
  2  3  1  0
  2  4  1  0
  2 78  1  0
  3 82  1  0
  3 83  1  0
  3 84  1  0
  4  5  1  0
  4  9  2  0
  5  6  2  0
  5 85  1  0
  6  7  1  0
  6 86  1  0
  7  8  2  0
  7 87  1  0
  8  9  1  0
  8 88  1  0
  9 10  1  0
 10 11  1  0
 10 73  1  0
 11 12  2  0
 11 72  1  0
 12 13  1  0
 12 89  1  0
 13 14  2  0
 13 90  1  0
 14 15  1  0
 14 71  1  0
 15 16  2  0
 15 17  1  0
 17 18  2  0
 17 70  1  0
 18 19  1  0
 18 91  1  0
 19 20  1  0
 19 44  2  0
 20 21  2  0
 20 22  1  0
 22 23  2  0
 22 43  1  0
 23 24  1  0
 23 92  1  0
 24 25  2  0
 24 93  1  0
 25 26  1  0
 25 42  1  0
 26 27  1  0
 26 41  1  0
 27 28  2  0
 27 32  1  0
 28 29  1  0
 28 94  1  0
 29 30  2  0
 29 95  1  0
 30 31  1  0
 30 96  1  0
 31 32  2  0
 31 97  1  0
 32 33  1  0
 33 34  1  1
 33 35  1  0
 33 36  1  0
 34 98  1  0
 34 99  1  0
 34100  1  0
 35101  1  0
 35102  1  0
 35103  1  0
 36 37  2  0
 36 41  1  0
 37 38  1  0
 37104  1  0
 38 39  2  0
 38105  1  0
 39 40  1  0
 39106  1  0
 40 41  2  0
 40107  1  0
 42 43  2  0
 42108  1  0
 43109  1  0
 44 45  1  0
 44110  1  0
 45 46  1  0
 45 70  2  0
 46 47  2  0
 46 48  1  0
 48 49  2  0
 48 69  1  0
 49 50  1  0
 49111  1  0
 50 51  2  0
 50112  1  0
 51 52  1  0
 51 68  1  0
 52 53  1  0
 52 67  1  0
 53 54  2  0
 53 58  1  0
 54 55  1  0
 54113  1  0
 55 56  2  0
 55114  1  0
 56 57  1  0
 56115  1  0
 57 58  2  0
 57116  1  0
 58 59  1  0
 59 60  1  6
 59 61  1  0
 59 62  1  0
 60117  1  0
 60118  1  0
 60119  1  0
 61120  1  0
 61121  1  0
 61122  1  0
 62 63  2  0
 62 67  1  0
 63 64  1  0
 63123  1  0
 64 65  2  0
 64124  1  0
 65 66  1  0
 65125  1  0
 66 67  2  0
 66126  1  0
 68 69  2  0
 68127  1  0
 69128  1  0
 70129  1  0
 71 72  2  0
 71130  1  0
 72131  1  0
 73 74  1  0
 73 78  2  0
 74 75  2  0
 74132  1  0
 75 76  1  0
 75133  1  0
 76 77  2  0
 76134  1  0
 77 78  1  0
 77135  1  0
M  END

