
     RDKit          3D

 89 99  0  0  0  0  0  0  0  0999 V2000
   -3.5598    8.3352   -2.3501 C   0  0  0  0  0  0  0  0  0  0  0  0
   -4.4411    7.2503   -2.3831 C   0  0  0  0  0  0  0  0  0  0  0  0
   -3.9818    5.9617   -2.1049 C   0  0  0  0  0  0  0  0  0  0  0  0
   -2.6296    5.7256   -1.7893 C   0  0  0  0  0  0  0  0  0  0  0  0
   -2.1397    4.3541   -1.4938 C   0  0  0  0  0  0  0  0  0  0  0  0
   -0.8535    3.9383   -1.8925 C   0  0  0  0  0  0  0  0  0  0  0  0
   -0.3906    2.6552   -1.6144 C   0  0  0  0  0  0  0  0  0  0  0  0
   -1.2009    1.7373   -0.9226 C   0  0  0  0  0  0  0  0  0  0  0  0
   -0.7063    0.3732   -0.6216 C   0  0  0  0  0  0  0  0  0  0  0  0
   -1.5294   -0.4821   -0.0000 N   0  0  0  0  0  0  0  0  0  0  0  0
   -1.0348   -1.6995    0.2567 C   0  0  0  0  0  0  0  0  0  0  0  0
   -1.8957   -2.6706    0.9744 C   0  0  0  0  0  0  0  0  0  0  0  0
   -3.2368   -2.3647    1.2632 C   0  0  0  0  0  0  0  0  0  0  0  0
   -4.0427   -3.2761    1.9398 C   0  0  0  0  0  0  0  0  0  0  0  0
   -3.5412   -4.5240    2.3605 C   0  0  0  0  0  0  0  0  0  0  0  0
   -4.4015   -5.4927    3.0886 C   0  0  0  0  0  0  0  0  0  0  0  0
   -3.8747   -6.3017    4.1140 C   0  0  0  0  0  0  0  0  0  0  0  0
   -4.6824   -7.2100    4.8008 C   0  0  0  0  0  0  0  0  0  0  0  0
   -6.0369   -7.3333    4.4769 C   0  0  0  0  0  0  0  0  0  0  0  0
   -6.5754   -6.5388    3.4603 C   0  0  0  0  0  0  0  0  0  0  0  0
   -5.7679   -5.6286    2.7755 C   0  0  0  0  0  0  0  0  0  0  0  0
   -2.1944   -4.8199    2.0704 C   0  0  0  0  0  0  0  0  0  0  0  0
   -1.3865   -3.9132    1.3900 C   0  0  0  0  0  0  0  0  0  0  0  0
    0.2012   -2.0914   -0.0868 N   0  0  0  0  0  0  0  0  0  0  0  0
    0.9403   -1.1749   -0.7125 C   0  0  0  0  0  0  0  0  0  0  0  0
    2.2186   -1.5512   -1.1443 N   0  0  0  0  0  0  0  0  0  0  0  0
    2.4545   -2.7713   -1.8372 C   0  0  0  0  0  0  0  0  0  0  0  0
    1.7762   -3.9918   -1.7696 C   0  0  0  0  0  0  0  0  0  0  0  0
    2.2111   -5.0266   -2.6032 C   0  0  0  0  0  0  0  0  0  0  0  0
    3.2918   -4.8558   -3.4839 C   0  0  0  0  0  0  0  0  0  0  0  0
    3.9602   -3.6336   -3.5517 C   0  0  0  0  0  0  0  0  0  0  0  0
    3.5400   -2.5824   -2.7263 C   0  0  0  0  0  0  0  0  0  0  0  0
    4.0123   -1.2198   -2.5586 C   0  0  0  0  0  0  0  0  0  0  0  0
    5.0455   -0.5118   -3.2015 C   0  0  0  0  0  0  0  0  0  0  0  0
    5.3063    0.7973   -2.8228 C   0  0  0  0  0  0  0  0  0  0  0  0
    4.5963    1.3619   -1.7466 C   0  0  0  0  0  0  0  0  0  0  0  0
    4.7295    2.6378   -1.0758 C   0  0  0  0  0  0  0  0  0  0  0  0
    5.5411    3.7598   -1.3004 C   0  0  0  0  0  0  0  0  0  0  0  0
    5.4703    4.8352   -0.4169 C   0  0  0  0  0  0  0  0  0  0  0  0
    4.6068    4.7899    0.6933 C   0  0  0  0  0  0  0  0  0  0  0  0
    3.7886    3.6852    0.9354 C   0  0  0  0  0  0  0  0  0  0  0  0
    3.8417    2.6176    0.0302 C   0  0  0  0  0  0  0  0  0  0  0  0
    3.1446    1.3969    0.0408 N   0  0  0  0  0  0  0  0  0  0  0  0
    2.5163    0.8815    1.2116 C   0  0  0  0  0  0  0  0  0  0  0  0
    1.4481    1.5716    1.8046 C   0  0  0  0  0  0  0  0  0  0  0  0
    0.8649    1.0844    2.9761 C   0  0  0  0  0  0  0  0  0  0  0  0
    1.3290   -0.1000    3.5582 C   0  0  0  0  0  0  0  0  0  0  0  0
    2.3887   -0.7906    2.9641 C   0  0  0  0  0  0  0  0  0  0  0  0
    2.9896   -0.2998    1.8022 C   0  0  0  0  0  0  0  0  0  0  0  0
    3.5845    0.6390   -1.0526 C   0  0  0  0  0  0  0  0  0  0  0  0
    3.2189   -0.6310   -1.5444 C   0  0  0  0  0  0  0  0  0  0  0  0
    0.5425    0.0651   -0.9949 N   0  0  0  0  0  0  0  0  0  0  0  0
   -2.4868    2.1411   -0.5235 C   0  0  0  0  0  0  0  0  0  0  0  0
   -2.9449    3.4253   -0.8042 C   0  0  0  0  0  0  0  0  0  0  0  0
   -1.7549    6.8292   -1.7619 C   0  0  0  0  0  0  0  0  0  0  0  0
   -2.2144    8.1183   -2.0376 C   0  0  0  0  0  0  0  0  0  0  0  0
   -3.9194    9.3441   -2.5674 H   0  0  0  0  0  0  0  0  0  0  0  0
   -5.4932    7.4067   -2.6353 H   0  0  0  0  0  0  0  0  0  0  0  0
   -4.6773    5.1210   -2.1589 H   0  0  0  0  0  0  0  0  0  0  0  0
   -0.2147    4.6240   -2.4531 H   0  0  0  0  0  0  0  0  0  0  0  0
    0.6023    2.3414   -1.9385 H   0  0  0  0  0  0  0  0  0  0  0  0
   -3.6333   -1.3976    0.9529 H   0  0  0  0  0  0  0  0  0  0  0  0
   -5.0753   -3.0055    2.1711 H   0  0  0  0  0  0  0  0  0  0  0  0
   -2.8239   -6.1992    4.3945 H   0  0  0  0  0  0  0  0  0  0  0  0
   -4.2521   -7.8199    5.5993 H   0  0  0  0  0  0  0  0  0  0  0  0
   -6.6693   -8.0448    5.0136 H   0  0  0  0  0  0  0  0  0  0  0  0
   -7.6309   -6.6331    3.1925 H   0  0  0  0  0  0  0  0  0  0  0  0
   -6.1978   -5.0318    1.9678 H   0  0  0  0  0  0  0  0  0  0  0  0
   -1.7803   -5.7872    2.3632 H   0  0  0  0  0  0  0  0  0  0  0  0
   -0.3455   -4.1556    1.1731 H   0  0  0  0  0  0  0  0  0  0  0  0
    0.9419   -4.1274   -1.0861 H   0  0  0  0  0  0  0  0  0  0  0  0
    1.6987   -5.9911   -2.5597 H   0  0  0  0  0  0  0  0  0  0  0  0
    3.6104   -5.6866   -4.1182 H   0  0  0  0  0  0  0  0  0  0  0  0
    4.7992   -3.4953   -4.2380 H   0  0  0  0  0  0  0  0  0  0  0  0
    5.6249   -0.9888   -3.9947 H   0  0  0  0  0  0  0  0  0  0  0  0
    6.0843    1.3764   -3.3254 H   0  0  0  0  0  0  0  0  0  0  0  0
    6.2241    3.7861   -2.1532 H   0  0  0  0  0  0  0  0  0  0  0  0
    6.0945    5.7169   -0.5804 H   0  0  0  0  0  0  0  0  0  0  0  0
    4.5741    5.6358    1.3847 H   0  0  0  0  0  0  0  0  0  0  0  0
    3.1341    3.6609    1.8066 H   0  0  0  0  0  0  0  0  0  0  0  0
    1.0615    2.4740    1.3288 H   0  0  0  0  0  0  0  0  0  0  0  0
    0.0296    1.6264    3.4264 H   0  0  0  0  0  0  0  0  0  0  0  0
    0.8632   -0.4843    4.4687 H   0  0  0  0  0  0  0  0  0  0  0  0
    2.7606   -1.7156    3.4116 H   0  0  0  0  0  0  0  0  0  0  0  0
    3.8312   -0.8286    1.3516 H   0  0  0  0  0  0  0  0  0  0  0  0
   -3.1147    1.4340    0.0193 H   0  0  0  0  0  0  0  0  0  0  0  0
   -3.9371    3.7246   -0.4595 H   0  0  0  0  0  0  0  0  0  0  0  0
   -0.7060    6.6790   -1.4964 H   0  0  0  0  0  0  0  0  0  0  0  0
   -1.5177    8.9598   -2.0010 H   0  0  0  0  0  0  0  0  0  0  0  0
  1  2  2  0
  1 56  1  0
  1 57  1  0
  2  3  1  0
  2 58  1  0
  3  4  2  0
  3 59  1  0
  4  5  1  0
  4 55  1  0
  5  6  2  0
  5 54  1  0
  6  7  1  0
  6 60  1  0
  7  8  2  0
  7 61  1  0
  8  9  1  0
  8 53  1  0
  9 10  2  0
  9 52  1  0
 10 11  1  0
 11 12  1  0
 11 24  2  0
 12 13  2  0
 12 23  1  0
 13 14  1  0
 13 62  1  0
 14 15  2  0
 14 63  1  0
 15 16  1  0
 15 22  1  0
 16 17  2  0
 16 21  1  0
 17 18  1  0
 17 64  1  0
 18 19  2  0
 18 65  1  0
 19 20  1  0
 19 66  1  0
 20 21  2  0
 20 67  1  0
 21 68  1  0
 22 23  2  0
 22 69  1  0
 23 70  1  0
 24 25  1  0
 25 26  1  0
 25 52  2  0
 26 27  1  0
 26 51  1  0
 27 28  2  0
 27 32  1  0
 28 29  1  0
 28 71  1  0
 29 30  2  0
 29 72  1  0
 30 31  1  0
 30 73  1  0
 31 32  2  0
 31 74  1  0
 32 33  1  0
 33 34  1  0
 33 51  2  0
 34 35  2  0
 34 75  1  0
 35 36  1  0
 35 76  1  0
 36 37  1  0
 36 50  2  0
 37 38  2  0
 37 42  1  0
 38 39  1  0
 38 77  1  0
 39 40  2  0
 39 78  1  0
 40 41  1  0
 40 79  1  0
 41 42  2  0
 41 80  1  0
 42 43  1  0
 43 44  1  0
 43 50  1  0
 44 45  2  0
 44 49  1  0
 45 46  1  0
 45 81  1  0
 46 47  2  0
 46 82  1  0
 47 48  1  0
 47 83  1  0
 48 49  2  0
 48 84  1  0
 49 85  1  0
 50 51  1  0
 53 54  2  0
 53 86  1  0
 54 87  1  0
 55 56  2  0
 55 88  1  0
 56 89  1  0
M  END

