
     RDKit          3D

146155  0  0  0  0  0  0  0  0999 V2000
    6.8829   -0.6932    4.6704 C   0  0  0  0  0  0  0  0  0  0  0  0
    7.1355    0.2333    3.4585 C   0  0  2  0  0  0  0  0  0  0  0  0
    8.4835   -0.1608    2.8284 C   0  0  0  0  0  0  0  0  0  0  0  0
    7.2413    1.6980    3.9434 C   0  0  0  0  0  0  0  0  0  0  0  0
    5.9674    0.1044    2.4592 C   0  0  0  0  0  0  0  0  0  0  0  0
    4.6543    0.4329    2.8778 C   0  0  0  0  0  0  0  0  0  0  0  0
    3.5465    0.3447    2.0371 C   0  0  0  0  0  0  0  0  0  0  0  0
    3.7570   -0.0865    0.7258 C   0  0  0  0  0  0  0  0  0  0  0  0
    5.0499   -0.4313    0.2691 C   0  0  0  0  0  0  0  0  0  0  0  0
    6.1449   -0.3302    1.1405 C   0  0  0  0  0  0  0  0  0  0  0  0
    4.9107   -0.8566   -1.1133 C   0  0  0  0  0  0  0  0  0  0  0  0
    5.8248   -1.2930   -2.0841 C   0  0  0  0  0  0  0  0  0  0  0  0
    5.3891   -1.6374   -3.3693 C   0  0  0  0  0  0  0  0  0  0  0  0
    6.3524   -2.1204   -4.4730 C   0  0  1  0  0  0  0  0  0  0  0  0
    6.2871   -1.1502   -5.6757 C   0  0  0  0  0  0  0  0  0  0  0  0
    7.8112   -2.1794   -3.9849 C   0  0  0  0  0  0  0  0  0  0  0  0
    5.9422   -3.5383   -4.9339 C   0  0  0  0  0  0  0  0  0  0  0  0
    4.0052   -1.5262   -3.6524 C   0  0  0  0  0  0  0  0  0  0  0  0
    3.0725   -1.0925   -2.7118 C   0  0  0  0  0  0  0  0  0  0  0  0
    3.5375   -0.7613   -1.4372 C   0  0  0  0  0  0  0  0  0  0  0  0
    2.8381   -0.2821   -0.3194 N   0  0  0  0  0  0  0  0  0  0  0  0
    1.4429   -0.1283   -0.2246 C   0  0  0  0  0  0  0  0  0  0  0  0
    0.5954   -1.2503   -0.1293 C   0  0  0  0  0  0  0  0  0  0  0  0
    1.2885   -2.8342   -0.0788 Cl  0  0  0  0  0  0  0  0  0  0  0  0
   -0.8006   -1.0991   -0.0036 C   0  0  0  0  0  0  0  0  0  0  0  0
   -1.6471   -2.2149    0.1079 N   0  0  0  0  0  0  0  0  0  0  0  0
   -2.3323   -2.6052    1.2724 C   0  0  0  0  0  0  0  0  0  0  0  0
   -2.3497   -2.0265    2.5394 C   0  0  0  0  0  0  0  0  0  0  0  0
   -3.1154   -2.6427    3.5335 C   0  0  0  0  0  0  0  0  0  0  0  0
   -3.8595   -3.8203    3.3033 C   0  0  0  0  0  0  0  0  0  0  0  0
   -4.7066   -4.4931    4.4041 C   0  0  1  0  0  0  0  0  0  0  0  0
   -6.1843   -4.5544    3.9522 C   0  0  0  0  0  0  0  0  0  0  0  0
   -4.1853   -5.9277    4.6520 C   0  0  0  0  0  0  0  0  0  0  0  0
   -4.6474   -3.7263    5.7381 C   0  0  0  0  0  0  0  0  0  0  0  0
   -3.8116   -4.3856    2.0187 C   0  0  0  0  0  0  0  0  0  0  0  0
   -3.0561   -3.7923    1.0026 C   0  0  0  0  0  0  0  0  0  0  0  0
   -2.8019   -4.1359   -0.3880 C   0  0  0  0  0  0  0  0  0  0  0  0
   -3.2460   -5.1670   -1.2214 C   0  0  0  0  0  0  0  0  0  0  0  0
   -2.8356   -5.2358   -2.5627 C   0  0  0  0  0  0  0  0  0  0  0  0
   -3.3481   -6.3826   -3.4595 C   0  0  1  0  0  0  0  0  0  0  0  0
   -4.8900   -6.3098   -3.5548 C   0  0  0  0  0  0  0  0  0  0  0  0
   -2.7772   -6.3084   -4.8874 C   0  0  0  0  0  0  0  0  0  0  0  0
   -2.9352   -7.7418   -2.8488 C   0  0  0  0  0  0  0  0  0  0  0  0
   -1.9669   -4.2295   -3.0391 C   0  0  0  0  0  0  0  0  0  0  0  0
   -1.5080   -3.1841   -2.2322 C   0  0  0  0  0  0  0  0  0  0  0  0
   -1.9271   -3.1484   -0.9041 C   0  0  0  0  0  0  0  0  0  0  0  0
   -1.3482    0.2070    0.0230 C   0  0  0  0  0  0  0  0  0  0  0  0
   -2.7741    0.3685    0.0420 C   0  0  0  0  0  0  0  0  0  0  0  0
   -3.9270    0.4960    0.0342 N   0  0  0  0  0  0  0  0  0  0  0  0
   -0.5171    1.3476   -0.0367 C   0  0  0  0  0  0  0  0  0  0  0  0
   -1.0749    2.6375    0.0022 N   0  0  0  0  0  0  0  0  0  0  0  0
   -1.1185    3.5540   -1.0646 C   0  0  0  0  0  0  0  0  0  0  0  0
   -0.6513    3.4310   -2.3748 C   0  0  0  0  0  0  0  0  0  0  0  0
   -0.8514    4.5048   -3.2401 C   0  0  0  0  0  0  0  0  0  0  0  0
   -1.5067    5.6982   -2.8482 C   0  0  0  0  0  0  0  0  0  0  0  0
   -1.6771    6.8401   -3.8707 C   0  0  2  0  0  0  0  0  0  0  0  0
   -2.4841    6.3307   -5.0876 C   0  0  0  0  0  0  0  0  0  0  0  0
   -0.2846    7.3204   -4.3419 C   0  0  0  0  0  0  0  0  0  0  0  0
   -2.4236    8.0465   -3.2739 C   0  0  0  0  0  0  0  0  0  0  0  0
   -1.9731    5.7868   -1.5315 C   0  0  0  0  0  0  0  0  0  0  0  0
   -1.7856    4.7239   -0.6353 C   0  0  0  0  0  0  0  0  0  0  0  0
   -2.1589    4.5152    0.7532 C   0  0  0  0  0  0  0  0  0  0  0  0
   -2.8139    5.3123    1.7037 C   0  0  0  0  0  0  0  0  0  0  0  0
   -3.0262    4.8401    3.0043 C   0  0  0  0  0  0  0  0  0  0  0  0
   -3.7423    5.6734    4.0868 C   0  0  1  0  0  0  0  0  0  0  0  0
   -4.9911    4.9095    4.5856 C   0  0  0  0  0  0  0  0  0  0  0  0
   -2.7797    5.9150    5.2728 C   0  0  0  0  0  0  0  0  0  0  0  0
   -4.2010    7.0432    3.5554 C   0  0  0  0  0  0  0  0  0  0  0  0
   -2.5542    3.5433    3.3239 C   0  0  0  0  0  0  0  0  0  0  0  0
   -1.8991    2.7278    2.4032 C   0  0  0  0  0  0  0  0  0  0  0  0
   -1.7118    3.2227    1.1108 C   0  0  0  0  0  0  0  0  0  0  0  0
    0.8783    1.1690   -0.1667 C   0  0  0  0  0  0  0  0  0  0  0  0
    1.7429    2.3128   -0.2245 C   0  0  0  0  0  0  0  0  0  0  0  0
    2.4429    3.2368   -0.2675 N   0  0  0  0  0  0  0  0  0  0  0  0
    6.8096   -1.7459    4.3538 H   0  0  0  0  0  0  0  0  0  0  0  0
    5.9511   -0.4375    5.1978 H   0  0  0  0  0  0  0  0  0  0  0  0
    7.7085   -0.6127    5.3969 H   0  0  0  0  0  0  0  0  0  0  0  0
    8.4863   -1.2071    2.4845 H   0  0  0  0  0  0  0  0  0  0  0  0
    9.2883   -0.0566    3.5731 H   0  0  0  0  0  0  0  0  0  0  0  0
    8.7411    0.4824    1.9723 H   0  0  0  0  0  0  0  0  0  0  0  0
    6.3229    2.0320    4.4498 H   0  0  0  0  0  0  0  0  0  0  0  0
    8.0739    1.8089    4.6578 H   0  0  0  0  0  0  0  0  0  0  0  0
    7.4233    2.3808    3.0985 H   0  0  0  0  0  0  0  0  0  0  0  0
    4.4886    0.7732    3.9020 H   0  0  0  0  0  0  0  0  0  0  0  0
    2.5522    0.6093    2.4023 H   0  0  0  0  0  0  0  0  0  0  0  0
    7.1339   -0.6006    0.7707 H   0  0  0  0  0  0  0  0  0  0  0  0
    6.8800   -1.3544   -1.8185 H   0  0  0  0  0  0  0  0  0  0  0  0
    6.9697   -1.4809   -6.4760 H   0  0  0  0  0  0  0  0  0  0  0  0
    5.2751   -1.0940   -6.1050 H   0  0  0  0  0  0  0  0  0  0  0  0
    6.5805   -0.1314   -5.3766 H   0  0  0  0  0  0  0  0  0  0  0  0
    8.4637   -2.5290   -4.8005 H   0  0  0  0  0  0  0  0  0  0  0  0
    8.1794   -1.1909   -3.6687 H   0  0  0  0  0  0  0  0  0  0  0  0
    7.9348   -2.8770   -3.1417 H   0  0  0  0  0  0  0  0  0  0  0  0
    4.9186   -3.5603   -5.3381 H   0  0  0  0  0  0  0  0  0  0  0  0
    6.6197   -3.8978   -5.7261 H   0  0  0  0  0  0  0  0  0  0  0  0
    5.9865   -4.2536   -4.0972 H   0  0  0  0  0  0  0  0  0  0  0  0
    3.6403   -1.7859   -4.6485 H   0  0  0  0  0  0  0  0  0  0  0  0
    2.0152   -1.0166   -2.9736 H   0  0  0  0  0  0  0  0  0  0  0  0
   -1.7861   -1.1188    2.7635 H   0  0  0  0  0  0  0  0  0  0  0  0
   -3.1261   -2.1796    4.5196 H   0  0  0  0  0  0  0  0  0  0  0  0
   -6.8057   -5.0317    4.7280 H   0  0  0  0  0  0  0  0  0  0  0  0
   -6.5833   -3.5442    3.7691 H   0  0  0  0  0  0  0  0  0  0  0  0
   -6.3070   -5.1348    3.0251 H   0  0  0  0  0  0  0  0  0  0  0  0
   -4.2401   -6.5474    3.7440 H   0  0  0  0  0  0  0  0  0  0  0  0
   -4.7835   -6.4270    5.4322 H   0  0  0  0  0  0  0  0  0  0  0  0
   -3.1351   -5.9141    4.9847 H   0  0  0  0  0  0  0  0  0  0  0  0
   -5.0324   -2.6991    5.6402 H   0  0  0  0  0  0  0  0  0  0  0  0
   -5.2670   -4.2403    6.4897 H   0  0  0  0  0  0  0  0  0  0  0  0
   -3.6226   -3.6725    6.1378 H   0  0  0  0  0  0  0  0  0  0  0  0
   -4.3658   -5.3008    1.7988 H   0  0  0  0  0  0  0  0  0  0  0  0
   -3.9245   -5.9200   -0.8142 H   0  0  0  0  0  0  0  0  0  0  0  0
   -5.2129   -5.3530   -3.9950 H   0  0  0  0  0  0  0  0  0  0  0  0
   -5.3678   -6.4004   -2.5673 H   0  0  0  0  0  0  0  0  0  0  0  0
   -5.2774   -7.1249   -4.1884 H   0  0  0  0  0  0  0  0  0  0  0  0
   -3.0661   -5.3770   -5.3990 H   0  0  0  0  0  0  0  0  0  0  0  0
   -3.1655   -7.1467   -5.4870 H   0  0  0  0  0  0  0  0  0  0  0  0
   -1.6780   -6.3785   -4.8957 H   0  0  0  0  0  0  0  0  0  0  0  0
   -3.2962   -8.5727   -3.4773 H   0  0  0  0  0  0  0  0  0  0  0  0
   -3.3521   -7.8844   -1.8401 H   0  0  0  0  0  0  0  0  0  0  0  0
   -1.8393   -7.8243   -2.7721 H   0  0  0  0  0  0  0  0  0  0  0  0
   -1.6315   -4.2494   -4.0757 H   0  0  0  0  0  0  0  0  0  0  0  0
   -0.8421   -2.4231   -2.6437 H   0  0  0  0  0  0  0  0  0  0  0  0
   -0.1414    2.5304   -2.7224 H   0  0  0  0  0  0  0  0  0  0  0  0
   -0.4798    4.4087   -4.2624 H   0  0  0  0  0  0  0  0  0  0  0  0
   -2.6139    7.1363   -5.8293 H   0  0  0  0  0  0  0  0  0  0  0  0
   -3.4845    5.9853   -4.7815 H   0  0  0  0  0  0  0  0  0  0  0  0
   -1.9819    5.4924   -5.5941 H   0  0  0  0  0  0  0  0  0  0  0  0
    0.2899    6.5117   -4.8189 H   0  0  0  0  0  0  0  0  0  0  0  0
   -0.3857    8.1358   -5.0774 H   0  0  0  0  0  0  0  0  0  0  0  0
    0.3101    7.6968   -3.4946 H   0  0  0  0  0  0  0  0  0  0  0  0
   -2.5251    8.8362   -4.0350 H   0  0  0  0  0  0  0  0  0  0  0  0
   -3.4381    7.7782   -2.9398 H   0  0  0  0  0  0  0  0  0  0  0  0
   -1.8840    8.4815   -2.4181 H   0  0  0  0  0  0  0  0  0  0  0  0
   -2.4913    6.6798   -1.1821 H   0  0  0  0  0  0  0  0  0  0  0  0
   -3.1503    6.3063    1.4096 H   0  0  0  0  0  0  0  0  0  0  0  0
   -5.5185    5.4946    5.3571 H   0  0  0  0  0  0  0  0  0  0  0  0
   -5.6949    4.7211    3.7594 H   0  0  0  0  0  0  0  0  0  0  0  0
   -4.7299    3.9363    5.0289 H   0  0  0  0  0  0  0  0  0  0  0  0
   -2.4448    4.9712    5.7298 H   0  0  0  0  0  0  0  0  0  0  0  0
   -3.2761    6.5076    6.0592 H   0  0  0  0  0  0  0  0  0  0  0  0
   -1.8826    6.4651    4.9468 H   0  0  0  0  0  0  0  0  0  0  0  0
   -4.9131    6.9426    2.7214 H   0  0  0  0  0  0  0  0  0  0  0  0
   -4.7081    7.6033    4.3568 H   0  0  0  0  0  0  0  0  0  0  0  0
   -3.3535    7.6562    3.2108 H   0  0  0  0  0  0  0  0  0  0  0  0
   -2.7045    3.1531    4.3326 H   0  0  0  0  0  0  0  0  0  0  0  0
   -1.5495    1.7356    2.6950 H   0  0  0  0  0  0  0  0  0  0  0  0
  2  1  1  1
  1 75  1  0
  1 76  1  0
  1 77  1  0
  2  3  1  0
  2  4  1  0
  2  5  1  0
  3 78  1  0
  3 79  1  0
  3 80  1  0
  4 81  1  0
  4 82  1  0
  4 83  1  0
  5  6  2  0
  5 10  1  0
  6  7  1  0
  6 84  1  0
  7  8  2  0
  7 85  1  0
  8  9  1  0
  8 21  1  0
  9 10  2  0
  9 11  1  0
 10 86  1  0
 11 12  2  0
 11 20  1  0
 12 13  1  0
 12 87  1  0
 13 14  1  0
 13 18  2  0
 14 15  1  6
 14 16  1  0
 14 17  1  0
 15 88  1  0
 15 89  1  0
 15 90  1  0
 16 91  1  0
 16 92  1  0
 16 93  1  0
 17 94  1  0
 17 95  1  0
 17 96  1  0
 18 19  1  0
 18 97  1  0
 19 20  2  0
 19 98  1  0
 20 21  1  0
 21 22  1  0
 22 23  2  0
 22 72  1  0
 23 24  1  0
 23 25  1  0
 25 26  1  0
 25 47  2  0
 26 27  1  0
 26 46  1  0
 27 28  2  0
 27 36  1  0
 28 29  1  0
 28 99  1  0
 29 30  2  0
 29100  1  0
 30 31  1  0
 30 35  1  0
 31 32  1  6
 31 33  1  0
 31 34  1  0
 32101  1  0
 32102  1  0
 32103  1  0
 33104  1  0
 33105  1  0
 33106  1  0
 34107  1  0
 34108  1  0
 34109  1  0
 35 36  2  0
 35110  1  0
 36 37  1  0
 37 38  1  0
 37 46  2  0
 38 39  2  0
 38111  1  0
 39 40  1  0
 39 44  1  0
 40 41  1  6
 40 42  1  0
 40 43  1  0
 41112  1  0
 41113  1  0
 41114  1  0
 42115  1  0
 42116  1  0
 42117  1  0
 43118  1  0
 43119  1  0
 43120  1  0
 44 45  2  0
 44121  1  0
 45 46  1  0
 45122  1  0
 47 48  1  0
 47 50  1  0
 48 49  3  0
 50 51  1  0
 50 72  2  0
 51 52  1  0
 51 71  1  0
 52 53  2  0
 52 61  1  0
 53 54  1  0
 53123  1  0
 54 55  2  0
 54124  1  0
 55 56  1  0
 55 60  1  0
 56 57  1  6
 56 58  1  0
 56 59  1  0
 57125  1  0
 57126  1  0
 57127  1  0
 58128  1  0
 58129  1  0
 58130  1  0
 59131  1  0
 59132  1  0
 59133  1  0
 60 61  2  0
 60134  1  0
 61 62  1  0
 62 63  1  0
 62 71  2  0
 63 64  2  0
 63135  1  0
 64 65  1  0
 64 69  1  0
 65 66  1  1
 65 67  1  0
 65 68  1  0
 66136  1  0
 66137  1  0
 66138  1  0
 67139  1  0
 67140  1  0
 67141  1  0
 68142  1  0
 68143  1  0
 68144  1  0
 69 70  2  0
 69145  1  0
 70 71  1  0
 70146  1  0
 72 73  1  0
 73 74  3  0
M  END

