
     RDKit          3D

 69 73  0  0  0  0  0  0  0  0999 V2000
    5.0271   -0.8785    1.6412 C   0  0  0  0  0  0  0  0  0  0  0  0
    4.0470    0.1870    1.1795 C   0  0  0  0  0  0  0  0  0  0  0  0
    4.5969    0.9955    0.1239 O   0  0  0  0  0  0  0  0  0  0  0  0
    4.4084    0.5719   -1.1377 C   0  0  0  0  0  0  0  0  0  0  0  0
    3.9423   -0.5041   -1.4321 O   0  0  0  0  0  0  0  0  0  0  0  0
    4.8810    1.5742   -2.1229 C   0  0  0  0  0  0  0  0  0  0  0  0
    4.8695    2.9986   -2.0686 C   0  0  0  0  0  0  0  0  0  0  0  0
    4.3644    3.9103   -1.0279 C   0  0  0  0  0  0  0  0  0  0  0  0
    5.0046    5.0824   -0.7431 C   0  0  0  0  0  0  0  0  0  0  0  0
    4.5045    5.9945    0.2432 C   0  0  0  0  0  0  0  0  0  0  0  0
    5.1193    7.2127    0.5913 C   0  0  0  0  0  0  0  0  0  0  0  0
    4.6051    8.0512    1.5760 C   0  0  0  0  0  0  0  0  0  0  0  0
    3.4212    7.6468    2.2475 C   0  0  0  0  0  0  0  0  0  0  0  0
    2.7800    6.4450    1.9155 C   0  0  0  0  0  0  0  0  0  0  0  0
    3.3192    5.6342    0.9225 C   0  0  0  0  0  0  0  0  0  0  0  0
    2.6742    4.4796    0.6181 O   0  0  0  0  0  0  0  0  0  0  0  0
    3.0901    3.5897   -0.3624 C   0  0  0  0  0  0  0  0  0  0  0  0
    2.3792    2.6461   -0.5927 O   0  0  0  0  0  0  0  0  0  0  0  0
    2.8319    8.3888    3.2109 O   0  0  0  0  0  0  0  0  0  0  0  0
    3.5269    9.5254    3.7895 C   0  0  2  0  0  0  0  0  0  0  0  0
    4.4628    9.0027    4.8873 C   0  0  0  0  0  0  0  0  0  0  0  0
    2.4192   10.3896    4.3875 C   0  0  0  0  0  0  0  0  0  0  0  0
    4.2772   10.2765    2.6783 C   0  0  0  0  0  0  0  0  0  0  0  0
    5.2591    9.3666    1.9369 C   0  0  0  0  0  0  0  0  0  0  0  0
    5.4070    3.5083   -3.1762 N   0  0  0  0  0  0  0  0  0  0  0  0
    5.7481    2.4681   -3.9569 N   0  0  0  0  0  0  0  0  0  0  0  0
    6.4325    2.7440   -5.1859 C   0  0  0  0  0  0  0  0  0  0  0  0
    7.4713    3.6857   -5.1681 C   0  0  0  0  0  0  0  0  0  0  0  0
    8.1308    3.9864   -6.3574 C   0  0  0  0  0  0  0  0  0  0  0  0
    7.7632    3.3557   -7.5513 C   0  0  0  0  0  0  0  0  0  0  0  0
    6.7201    2.4203   -7.5774 C   0  0  0  0  0  0  0  0  0  0  0  0
    6.2972    1.7427   -8.8582 C   0  0  0  0  0  0  0  0  0  0  0  0
    6.0491    2.1267   -6.3785 C   0  0  0  0  0  0  0  0  0  0  0  0
    5.4512    1.2718   -3.3566 C   0  0  0  0  0  0  0  0  0  0  0  0
    5.7178   -0.0817   -3.9307 C   0  0  0  0  0  0  0  0  0  0  0  0
    5.3765   -0.4477   -5.0314 O   0  0  0  0  0  0  0  0  0  0  0  0
    6.3705   -0.8404   -3.0474 O   0  0  0  0  0  0  0  0  0  0  0  0
    6.5245   -2.2413   -3.3537 C   0  0  0  0  0  0  0  0  0  0  0  0
    7.7920   -2.5050   -4.1480 C   0  0  0  0  0  0  0  0  0  0  0  0
    4.6096   -1.4227    2.5039 H   0  0  0  0  0  0  0  0  0  0  0  0
    5.9839   -0.4281    1.9487 H   0  0  0  0  0  0  0  0  0  0  0  0
    5.2199   -1.6047    0.8379 H   0  0  0  0  0  0  0  0  0  0  0  0
    3.8202    0.8988    1.9864 H   0  0  0  0  0  0  0  0  0  0  0  0
    3.1073   -0.2626    0.8282 H   0  0  0  0  0  0  0  0  0  0  0  0
    5.9266    5.3272   -1.2762 H   0  0  0  0  0  0  0  0  0  0  0  0
    6.0302    7.5081    0.0619 H   0  0  0  0  0  0  0  0  0  0  0  0
    1.8665    6.1533    2.4337 H   0  0  0  0  0  0  0  0  0  0  0  0
    3.8805    8.4745    5.6571 H   0  0  0  0  0  0  0  0  0  0  0  0
    4.9995    9.8359    5.3676 H   0  0  0  0  0  0  0  0  0  0  0  0
    5.2084    8.2988    4.4891 H   0  0  0  0  0  0  0  0  0  0  0  0
    1.8360    9.8104    5.1190 H   0  0  0  0  0  0  0  0  0  0  0  0
    1.7335   10.7387    3.6009 H   0  0  0  0  0  0  0  0  0  0  0  0
    2.8466   11.2669    4.8966 H   0  0  0  0  0  0  0  0  0  0  0  0
    4.7977   11.1448    3.1122 H   0  0  0  0  0  0  0  0  0  0  0  0
    3.5291   10.6708    1.9703 H   0  0  0  0  0  0  0  0  0  0  0  0
    6.1534    9.1862    2.5601 H   0  0  0  0  0  0  0  0  0  0  0  0
    5.6245    9.8660    1.0251 H   0  0  0  0  0  0  0  0  0  0  0  0
    7.7419    4.1693   -4.2294 H   0  0  0  0  0  0  0  0  0  0  0  0
    8.9439    4.7166   -6.3548 H   0  0  0  0  0  0  0  0  0  0  0  0
    8.2927    3.5976   -8.4769 H   0  0  0  0  0  0  0  0  0  0  0  0
    6.9418    2.0316   -9.7013 H   0  0  0  0  0  0  0  0  0  0  0  0
    5.2588    2.0038   -9.1226 H   0  0  0  0  0  0  0  0  0  0  0  0
    6.3352    0.6456   -8.7585 H   0  0  0  0  0  0  0  0  0  0  0  0
    5.2332    1.4049   -6.3708 H   0  0  0  0  0  0  0  0  0  0  0  0
    5.6330   -2.5822   -3.8993 H   0  0  0  0  0  0  0  0  0  0  0  0
    6.5521   -2.7339   -2.3716 H   0  0  0  0  0  0  0  0  0  0  0  0
    7.7401   -2.0291   -5.1383 H   0  0  0  0  0  0  0  0  0  0  0  0
    7.9206   -3.5895   -4.2945 H   0  0  0  0  0  0  0  0  0  0  0  0
    8.6777   -2.1229   -3.6167 H   0  0  0  0  0  0  0  0  0  0  0  0
  1  2  1  0
  1 40  1  0
  1 41  1  0
  1 42  1  0
  2  3  1  0
  2 43  1  0
  2 44  1  0
  3  4  1  0
  4  5  2  0
  4  6  1  0
  6  7  1  0
  6 34  2  0
  7  8  1  0
  7 25  2  0
  8  9  2  0
  8 17  1  0
  9 10  1  0
  9 45  1  0
 10 11  2  0
 10 15  1  0
 11 12  1  0
 11 46  1  0
 12 13  2  0
 12 24  1  0
 13 14  1  0
 13 19  1  0
 14 15  2  0
 14 47  1  0
 15 16  1  0
 16 17  1  0
 17 18  2  0
 19 20  1  0
 20 21  1  1
 20 22  1  0
 20 23  1  0
 21 48  1  0
 21 49  1  0
 21 50  1  0
 22 51  1  0
 22 52  1  0
 22 53  1  0
 23 24  1  0
 23 54  1  0
 23 55  1  0
 24 56  1  0
 24 57  1  0
 25 26  1  0
 26 27  1  0
 26 34  1  0
 27 28  2  0
 27 33  1  0
 28 29  1  0
 28 58  1  0
 29 30  2  0
 29 59  1  0
 30 31  1  0
 30 60  1  0
 31 32  1  0
 31 33  2  0
 32 61  1  0
 32 62  1  0
 32 63  1  0
 33 64  1  0
 34 35  1  0
 35 36  2  0
 35 37  1  0
 37 38  1  0
 38 39  1  0
 38 65  1  0
 38 66  1  0
 39 67  1  0
 39 68  1  0
 39 69  1  0
M  END

