
     RDKit          3D

 95103  0  0  0  0  0  0  0  0999 V2000
    4.1414   -0.8593    2.7335 C   0  0  0  0  0  0  0  0  0  0  0  0
    4.0686   -0.4781    1.2543 C   0  0  0  0  0  0  0  0  0  0  0  0
    4.6661   -1.5377    0.3217 C   0  0  0  0  0  0  0  0  0  0  0  0
    4.5901   -1.1444   -1.1557 C   0  0  0  0  0  0  0  0  0  0  0  0
    5.1568   -2.1707   -2.1788 C   0  0  2  0  0  0  0  0  0  0  0  0
    4.9885   -1.5788   -3.6073 C   0  0  0  0  0  0  0  0  0  0  0  0
    5.4637   -2.4547   -4.7691 C   0  0  0  0  0  0  0  0  0  0  0  0
    5.2700   -1.7912   -6.1373 C   0  0  0  0  0  0  0  0  0  0  0  0
    5.7303   -2.6626   -7.3068 C   0  0  0  0  0  0  0  0  0  0  0  0
    4.4878   -3.5408   -2.0393 C   0  0  0  0  0  0  0  0  0  0  0  0
    3.1556   -3.8659   -2.2018 C   0  0  0  0  0  0  0  0  0  0  0  0
    2.7212   -5.2168   -2.0138 C   0  0  0  0  0  0  0  0  0  0  0  0
    1.3749   -5.5739   -2.1702 C   0  0  0  0  0  0  0  0  0  0  0  0
    0.1899   -5.8965   -2.3093 C   0  0  0  0  0  0  0  0  0  0  0  0
   -1.1503   -6.2647   -2.4701 C   0  0  0  0  0  0  0  0  0  0  0  0
   -2.1101   -5.2899   -2.8765 C   0  0  0  0  0  0  0  0  0  0  0  0
   -3.4355   -5.6111   -3.0567 C   0  0  0  0  0  0  0  0  0  0  0  0
   -3.9093   -6.9409   -2.8418 C   0  0  0  0  0  0  0  0  0  0  0  0
   -5.2720   -7.2978   -3.0237 C   0  0  0  0  0  0  0  0  0  0  0  0
   -5.7148   -8.5863   -2.8105 C   0  0  0  0  0  0  0  0  0  0  0  0
   -4.8183   -9.6178   -2.3957 C   0  0  0  0  0  0  0  0  0  0  0  0
   -5.2449  -10.9479   -2.1677 C   0  0  0  0  0  0  0  0  0  0  0  0
   -4.3379  -11.9294   -1.7613 C   0  0  0  0  0  0  0  0  0  0  0  0
   -2.9924  -11.6232   -1.5710 C   0  0  0  0  0  0  0  0  0  0  0  0
   -2.5136  -10.3053   -1.7866 C   0  0  0  0  0  0  0  0  0  0  0  0
   -1.1464   -9.9460   -1.6051 C   0  0  0  0  0  0  0  0  0  0  0  0
   -0.7069   -8.6569   -1.8226 C   0  0  0  0  0  0  0  0  0  0  0  0
   -1.5933   -7.6263   -2.2365 C   0  0  0  0  0  0  0  0  0  0  0  0
   -2.9750   -7.9496   -2.4270 C   0  0  0  0  0  0  0  0  0  0  0  0
   -3.4339   -9.2880   -2.2036 C   0  0  0  0  0  0  0  0  0  0  0  0
    3.7012   -6.2027   -1.6582 C   0  0  0  0  0  0  0  0  0  0  0  0
    5.0341   -5.8718   -1.5002 C   0  0  0  0  0  0  0  0  0  0  0  0
    5.4445   -4.5345   -1.6903 C   0  0  0  0  0  0  0  0  0  0  0  0
    6.7446   -3.9142   -1.5927 C   0  0  0  0  0  0  0  0  0  0  0  0
    8.0115   -4.4475   -1.2775 C   0  0  0  0  0  0  0  0  0  0  0  0
    9.1189   -3.6099   -1.2476 C   0  0  0  0  0  0  0  0  0  0  0  0
    8.9910   -2.2278   -1.5279 C   0  0  0  0  0  0  0  0  0  0  0  0
   10.1256   -1.3876   -1.4895 N   0  0  0  0  0  0  0  0  0  0  0  0
   11.0966   -1.5490   -0.4718 C   0  0  0  0  0  0  0  0  0  0  0  0
   12.4696   -1.4268   -0.7680 C   0  0  0  0  0  0  0  0  0  0  0  0
   13.4186   -1.5889    0.2395 C   0  0  0  0  0  0  0  0  0  0  0  0
   13.0217   -1.8803    1.5501 C   0  0  0  0  0  0  0  0  0  0  0  0
   11.6594   -2.0050    1.8468 C   0  0  0  0  0  0  0  0  0  0  0  0
   10.7001   -1.8391    0.8497 C   0  0  0  0  0  0  0  0  0  0  0  0
   10.2895   -0.3767   -2.4693 C   0  0  0  0  0  0  0  0  0  0  0  0
    9.9872   -0.6431   -3.8198 C   0  0  0  0  0  0  0  0  0  0  0  0
   10.1417    0.3550   -4.7803 C   0  0  0  0  0  0  0  0  0  0  0  0
   10.6010    1.6261   -4.4159 C   0  0  0  0  0  0  0  0  0  0  0  0
   10.9046    1.8926   -3.0755 C   0  0  0  0  0  0  0  0  0  0  0  0
   10.7495    0.9045   -2.1049 C   0  0  0  0  0  0  0  0  0  0  0  0
    7.7167   -1.6916   -1.8504 C   0  0  0  0  0  0  0  0  0  0  0  0
    6.6151   -2.5237   -1.8802 C   0  0  0  0  0  0  0  0  0  0  0  0
    3.7015   -0.0790    3.3750 H   0  0  0  0  0  0  0  0  0  0  0  0
    5.1849   -1.0084    3.0589 H   0  0  0  0  0  0  0  0  0  0  0  0
    3.5984   -1.7983    2.9317 H   0  0  0  0  0  0  0  0  0  0  0  0
    4.5881    0.4850    1.0949 H   0  0  0  0  0  0  0  0  0  0  0  0
    3.0152   -0.2990    0.9724 H   0  0  0  0  0  0  0  0  0  0  0  0
    4.1397   -2.4951    0.4771 H   0  0  0  0  0  0  0  0  0  0  0  0
    5.7180   -1.7184    0.6068 H   0  0  0  0  0  0  0  0  0  0  0  0
    5.1159   -0.1839   -1.3067 H   0  0  0  0  0  0  0  0  0  0  0  0
    3.5365   -0.9525   -1.4247 H   0  0  0  0  0  0  0  0  0  0  0  0
    5.5174   -0.6089   -3.6389 H   0  0  0  0  0  0  0  0  0  0  0  0
    3.9196   -1.3404   -3.7482 H   0  0  0  0  0  0  0  0  0  0  0  0
    4.9221   -3.4159   -4.7522 H   0  0  0  0  0  0  0  0  0  0  0  0
    6.5316   -2.7047   -4.6361 H   0  0  0  0  0  0  0  0  0  0  0  0
    5.8132   -0.8282   -6.1569 H   0  0  0  0  0  0  0  0  0  0  0  0
    4.2032   -1.5343   -6.2686 H   0  0  0  0  0  0  0  0  0  0  0  0
    6.8023   -2.9104   -7.2261 H   0  0  0  0  0  0  0  0  0  0  0  0
    5.5774   -2.1571   -8.2737 H   0  0  0  0  0  0  0  0  0  0  0  0
    5.1757   -3.6151   -7.3380 H   0  0  0  0  0  0  0  0  0  0  0  0
    2.4134   -3.1109   -2.4700 H   0  0  0  0  0  0  0  0  0  0  0  0
   -1.7658   -4.2671   -3.0472 H   0  0  0  0  0  0  0  0  0  0  0  0
   -4.1479   -4.8435   -3.3708 H   0  0  0  0  0  0  0  0  0  0  0  0
   -5.9758   -6.5225   -3.3403 H   0  0  0  0  0  0  0  0  0  0  0  0
   -6.7691   -8.8371   -2.9569 H   0  0  0  0  0  0  0  0  0  0  0  0
   -6.2991  -11.1985   -2.3139 H   0  0  0  0  0  0  0  0  0  0  0  0
   -4.6894  -12.9510   -1.5906 H   0  0  0  0  0  0  0  0  0  0  0  0
   -2.2885  -12.3969   -1.2528 H   0  0  0  0  0  0  0  0  0  0  0  0
   -0.4398  -10.7175   -1.2862 H   0  0  0  0  0  0  0  0  0  0  0  0
    0.3462   -8.4088   -1.6757 H   0  0  0  0  0  0  0  0  0  0  0  0
    3.3695   -7.2327   -1.5150 H   0  0  0  0  0  0  0  0  0  0  0  0
    5.7588   -6.6446   -1.2305 H   0  0  0  0  0  0  0  0  0  0  0  0
    8.1315   -5.5134   -1.0711 H   0  0  0  0  0  0  0  0  0  0  0  0
   10.1061   -4.0180   -1.0244 H   0  0  0  0  0  0  0  0  0  0  0  0
   12.7842   -1.2190   -1.7919 H   0  0  0  0  0  0  0  0  0  0  0  0
   14.4801   -1.5003   -0.0041 H   0  0  0  0  0  0  0  0  0  0  0  0
   13.7697   -2.0096    2.3354 H   0  0  0  0  0  0  0  0  0  0  0  0
   11.3388   -2.2215    2.8687 H   0  0  0  0  0  0  0  0  0  0  0  0
    9.6381   -1.9186    1.0870 H   0  0  0  0  0  0  0  0  0  0  0  0
    9.6455   -1.6387   -4.1074 H   0  0  0  0  0  0  0  0  0  0  0  0
    9.9123    0.1341   -5.8255 H   0  0  0  0  0  0  0  0  0  0  0  0
   10.7215    2.4049   -5.1722 H   0  0  0  0  0  0  0  0  0  0  0  0
   11.2539    2.8850   -2.7802 H   0  0  0  0  0  0  0  0  0  0  0  0
   10.9700    1.1210   -1.0583 H   0  0  0  0  0  0  0  0  0  0  0  0
    7.6212   -0.6226   -2.0511 H   0  0  0  0  0  0  0  0  0  0  0  0
  1  2  1  0
  1 53  1  0
  1 54  1  0
  1 55  1  0
  2  3  1  0
  2 56  1  0
  2 57  1  0
  3  4  1  0
  3 58  1  0
  3 59  1  0
  5  4  1  1
  4 60  1  0
  4 61  1  0
  5  6  1  0
  5 10  1  0
  5 52  1  0
  6  7  1  0
  6 62  1  0
  6 63  1  0
  7  8  1  0
  7 64  1  0
  7 65  1  0
  8  9  1  0
  8 66  1  0
  8 67  1  0
  9 68  1  0
  9 69  1  0
  9 70  1  0
 10 11  2  0
 10 33  1  0
 11 12  1  0
 11 71  1  0
 12 13  1  0
 12 31  2  0
 13 14  3  0
 14 15  1  0
 15 16  2  0
 15 28  1  0
 16 17  1  0
 16 72  1  0
 17 18  2  0
 17 73  1  0
 18 19  1  0
 18 29  1  0
 19 20  2  0
 19 74  1  0
 20 21  1  0
 20 75  1  0
 21 22  2  0
 21 30  1  0
 22 23  1  0
 22 76  1  0
 23 24  2  0
 23 77  1  0
 24 25  1  0
 24 78  1  0
 25 26  2  0
 25 30  1  0
 26 27  1  0
 26 79  1  0
 27 28  2  0
 27 80  1  0
 28 29  1  0
 29 30  2  0
 31 32  1  0
 31 81  1  0
 32 33  2  0
 32 82  1  0
 33 34  1  0
 34 35  2  0
 34 52  1  0
 35 36  1  0
 35 83  1  0
 36 37  2  0
 36 84  1  0
 37 38  1  0
 37 51  1  0
 38 39  1  0
 38 45  1  0
 39 40  2  0
 39 44  1  0
 40 41  1  0
 40 85  1  0
 41 42  2  0
 41 86  1  0
 42 43  1  0
 42 87  1  0
 43 44  2  0
 43 88  1  0
 44 89  1  0
 45 46  2  0
 45 50  1  0
 46 47  1  0
 46 90  1  0
 47 48  2  0
 47 91  1  0
 48 49  1  0
 48 92  1  0
 49 50  2  0
 49 93  1  0
 50 94  1  0
 51 52  2  0
 51 95  1  0
M  END

