
     RDKit          3D

 56 61  0  0  0  0  0  0  0  0999 V2000
    1.1086   -0.4746    0.2208 C   0  0  0  0  0  0  0  0  0  0  0  0
    2.4766   -0.1944    0.0232 O   0  0  0  0  0  0  0  0  0  0  0  0
    3.0316    0.8795    0.6354 C   0  0  0  0  0  0  0  0  0  0  0  0
    2.3389    1.7666    1.4744 C   0  0  0  0  0  0  0  0  0  0  0  0
    3.0129    2.8472    2.0509 C   0  0  0  0  0  0  0  0  0  0  0  0
    4.3819    3.0747    1.8265 C   0  0  0  0  0  0  0  0  0  0  0  0
    5.0862    4.2231    2.4542 C   0  0  0  0  0  0  0  0  0  0  0  0
    6.1429    3.9807    3.3987 C   0  0  0  0  0  0  0  0  0  0  0  0
    6.5189    2.6695    3.7914 C   0  0  0  0  0  0  0  0  0  0  0  0
    7.5533    2.4398    4.6985 C   0  0  0  0  0  0  0  0  0  0  0  0
    8.2418    3.5213    5.2620 C   0  0  0  0  0  0  0  0  0  0  0  0
    7.8750    4.8253    4.9236 C   0  0  0  0  0  0  0  0  0  0  0  0
    6.8329    5.0896    4.0102 C   0  0  0  0  0  0  0  0  0  0  0  0
    6.4292    6.4423    3.6946 C   0  0  0  0  0  0  0  0  0  0  0  0
    7.0873    7.5233    4.3065 C   0  0  0  0  0  0  0  0  0  0  0  0
    7.6637    8.4656    4.8444 C   0  0  0  0  0  0  0  0  0  0  0  0
    8.3300    9.5524    5.4669 C   0  0  0  0  0  0  0  0  0  0  0  0
    7.9590   10.8906    5.1840 C   0  0  0  0  0  0  0  0  0  0  0  0
    8.6168   11.9529    5.7985 C   0  0  0  0  0  0  0  0  0  0  0  0
    9.6563   11.7140    6.7063 C   0  0  0  0  0  0  0  0  0  0  0  0
   10.0340   10.3968    6.9960 C   0  0  0  0  0  0  0  0  0  0  0  0
    9.3835    9.3265    6.3876 C   0  0  0  0  0  0  0  0  0  0  0  0
    5.3616    6.6855    2.7624 C   0  0  0  0  0  0  0  0  0  0  0  0
    4.9492    7.9844    2.4384 C   0  0  0  0  0  0  0  0  0  0  0  0
    3.9305    8.2602    1.4908 C   0  0  0  0  0  0  0  0  0  0  0  0
    3.5183    9.5750    1.1695 C   0  0  0  0  0  0  0  0  0  0  0  0
    2.5255    9.8026    0.2179 C   0  0  0  0  0  0  0  0  0  0  0  0
    1.9178    8.7186   -0.4438 C   0  0  0  0  0  0  0  0  0  0  0  0
    2.3033    7.4133   -0.1489 C   0  0  0  0  0  0  0  0  0  0  0  0
    3.3057    7.1500    0.8183 C   0  0  0  0  0  0  0  0  0  0  0  0
    3.7211    5.8377    1.1485 C   0  0  0  0  0  0  0  0  0  0  0  0
    4.7046    5.5586    2.1211 C   0  0  0  0  0  0  0  0  0  0  0  0
    5.0597    2.1658    0.9835 C   0  0  0  0  0  0  0  0  0  0  0  0
    4.4011    1.0942    0.3936 C   0  0  0  0  0  0  0  0  0  0  0  0
    0.8864   -1.3771   -0.3644 H   0  0  0  0  0  0  0  0  0  0  0  0
    0.4642    0.3497   -0.1346 H   0  0  0  0  0  0  0  0  0  0  0  0
    0.8786   -0.6718    1.2834 H   0  0  0  0  0  0  0  0  0  0  0  0
    1.2798    1.6252    1.6910 H   0  0  0  0  0  0  0  0  0  0  0  0
    2.4614    3.5242    2.7077 H   0  0  0  0  0  0  0  0  0  0  0  0
    5.9779    1.8182    3.3790 H   0  0  0  0  0  0  0  0  0  0  0  0
    7.8168    1.4147    4.9702 H   0  0  0  0  0  0  0  0  0  0  0  0
    9.0548    3.3514    5.9720 H   0  0  0  0  0  0  0  0  0  0  0  0
    8.3962    5.6699    5.3767 H   0  0  0  0  0  0  0  0  0  0  0  0
    7.1489   11.0789    4.4765 H   0  0  0  0  0  0  0  0  0  0  0  0
    8.3174   12.9787    5.5686 H   0  0  0  0  0  0  0  0  0  0  0  0
   10.1697   12.5509    7.1861 H   0  0  0  0  0  0  0  0  0  0  0  0
   10.8445   10.2040    7.7037 H   0  0  0  0  0  0  0  0  0  0  0  0
    9.6796    8.3002    6.6144 H   0  0  0  0  0  0  0  0  0  0  0  0
    5.4410    8.8254    2.9309 H   0  0  0  0  0  0  0  0  0  0  0  0
    3.9945   10.4174    1.6787 H   0  0  0  0  0  0  0  0  0  0  0  0
    2.2201   10.8252   -0.0171 H   0  0  0  0  0  0  0  0  0  0  0  0
    1.1423    8.9023   -1.1915 H   0  0  0  0  0  0  0  0  0  0  0  0
    1.8319    6.5713   -0.6632 H   0  0  0  0  0  0  0  0  0  0  0  0
    3.2593    5.0084    0.6120 H   0  0  0  0  0  0  0  0  0  0  0  0
    6.1218    2.3189    0.7778 H   0  0  0  0  0  0  0  0  0  0  0  0
    4.9249    0.4020   -0.2689 H   0  0  0  0  0  0  0  0  0  0  0  0
  1  2  1  0
  1 35  1  0
  1 36  1  0
  1 37  1  0
  2  3  1  0
  3  4  2  0
  3 34  1  0
  4  5  1  0
  4 38  1  0
  5  6  2  0
  5 39  1  0
  6  7  1  0
  6 33  1  0
  7  8  1  0
  7 32  2  0
  8  9  2  0
  8 13  1  0
  9 10  1  0
  9 40  1  0
 10 11  2  0
 10 41  1  0
 11 12  1  0
 11 42  1  0
 12 13  2  0
 12 43  1  0
 13 14  1  0
 14 15  1  0
 14 23  2  0
 15 16  3  0
 16 17  1  0
 17 18  2  0
 17 22  1  0
 18 19  1  0
 18 44  1  0
 19 20  2  0
 19 45  1  0
 20 21  1  0
 20 46  1  0
 21 22  2  0
 21 47  1  0
 22 48  1  0
 23 24  1  0
 23 32  1  0
 24 25  2  0
 24 49  1  0
 25 26  1  0
 25 30  1  0
 26 27  2  0
 26 50  1  0
 27 28  1  0
 27 51  1  0
 28 29  2  0
 28 52  1  0
 29 30  1  0
 29 53  1  0
 30 31  2  0
 31 32  1  0
 31 54  1  0
 33 34  2  0
 33 55  1  0
 34 56  1  0
M  END

