
     RDKit          3D

 94104  0  0  0  0  0  0  0  0999 V2000
    5.3794   -1.3919   -1.3751 C   0  0  0  0  0  0  0  0  0  0  0  0
    4.3785   -0.6352   -0.5402 C   0  0  0  0  0  0  0  0  0  0  0  0
    4.5353    0.7592   -0.2812 C   0  0  0  0  0  0  0  0  0  0  0  0
    3.5121    1.2955    0.4599 C   0  0  0  0  0  0  0  0  0  0  0  0
    2.3005    0.1342    0.8220 S   0  0  0  0  0  0  0  0  0  0  0  0
    3.2020   -1.1419    0.0206 C   0  0  0  0  0  0  0  0  0  0  0  0
    2.7423   -2.5345    0.0403 C   0  0  0  0  0  0  0  0  0  0  0  0
    3.6472   -3.5810    0.0766 C   0  0  0  0  0  0  0  0  0  0  0  0
    3.2846   -4.9627    0.0509 C   0  0  0  0  0  0  0  0  0  0  0  0
    4.2528   -6.0187    0.0773 C   0  0  0  0  0  0  0  0  0  0  0  0
    5.6607   -5.7773    0.0930 C   0  0  0  0  0  0  0  0  0  0  0  0
    6.6190   -6.7722    0.0949 C   0  0  0  0  0  0  0  0  0  0  0  0
    8.0505   -6.4303    0.1527 C   0  0  0  0  0  0  0  0  0  0  0  0
    8.5650   -5.2557    1.3509 S   0  0  0  0  0  0  0  0  0  0  0  0
   10.2004   -5.3386    0.8157 C   0  0  0  0  0  0  0  0  0  0  0  0
   10.3420   -6.2183   -0.2256 C   0  0  0  0  0  0  0  0  0  0  0  0
    9.1206   -6.8544   -0.6211 C   0  0  0  0  0  0  0  0  0  0  0  0
    9.0562   -7.8230   -1.7692 C   0  0  0  0  0  0  0  0  0  0  0  0
    6.1629   -8.1504    0.1036 C   0  0  0  0  0  0  0  0  0  0  0  0
    7.0523   -9.1572    0.1357 N   0  0  0  0  0  0  0  0  0  0  0  0
    6.5677  -10.3887    0.1459 C   0  0  0  0  0  0  0  0  0  0  0  0
    7.5898  -11.5309    0.1742 C   0  0  1  0  0  0  0  0  0  0  0  0
    8.7725  -11.0841    0.6436 F   0  0  0  0  0  0  0  0  0  0  0  0
    7.1629  -12.5206    0.9954 F   0  0  0  0  0  0  0  0  0  0  0  0
    7.9090  -12.1773   -1.2098 C   0  0  1  0  0  0  0  0  0  0  0  0
    8.4403  -11.2241   -2.0086 F   0  0  0  0  0  0  0  0  0  0  0  0
    8.8332  -13.1357   -1.0094 F   0  0  0  0  0  0  0  0  0  0  0  0
    6.7355  -12.8254   -1.9964 C   0  0  1  0  0  0  0  0  0  0  0  0
    6.0557  -13.6805   -1.2380 F   0  0  0  0  0  0  0  0  0  0  0  0
    5.9066  -11.8879   -2.4592 F   0  0  0  0  0  0  0  0  0  0  0  0
    7.2381  -13.4889   -3.0407 F   0  0  0  0  0  0  0  0  0  0  0  0
    5.2964  -10.7644    0.1333 N   0  0  0  0  0  0  0  0  0  0  0  0
    4.3694   -9.7944    0.1174 C   0  0  0  0  0  0  0  0  0  0  0  0
    2.9571  -10.1303    0.0981 C   0  0  0  0  0  0  0  0  0  0  0  0
    2.4972  -11.5292    0.0731 C   0  0  0  0  0  0  0  0  0  0  0  0
    1.3268  -11.9910   -1.1501 S   0  0  0  0  0  0  0  0  0  0  0  0
    1.2545  -13.6063   -0.5543 C   0  0  0  0  0  0  0  0  0  0  0  0
    2.0834  -13.7796    0.5232 C   0  0  0  0  0  0  0  0  0  0  0  0
    2.8045  -12.5998    0.8992 C   0  0  0  0  0  0  0  0  0  0  0  0
    3.7324  -12.5663    2.0820 C   0  0  0  0  0  0  0  0  0  0  0  0
    2.0491   -9.0915    0.0448 C   0  0  0  0  0  0  0  0  0  0  0  0
    2.4108   -7.7092    0.0329 C   0  0  0  0  0  0  0  0  0  0  0  0
    1.4427   -6.6542   -0.0045 C   0  0  0  0  0  0  0  0  0  0  0  0
    0.0349   -6.8971   -0.0409 C   0  0  0  0  0  0  0  0  0  0  0  0
   -0.9277   -5.9042   -0.0822 C   0  0  0  0  0  0  0  0  0  0  0  0
   -2.3528   -6.2413   -0.1679 C   0  0  0  0  0  0  0  0  0  0  0  0
   -3.5725   -5.2850    0.6555 S   0  0  0  0  0  0  0  0  0  0  0  0
   -4.8195   -6.3674    0.1853 C   0  0  0  0  0  0  0  0  0  0  0  0
   -4.3473   -7.3856   -0.6048 C   0  0  0  0  0  0  0  0  0  0  0  0
   -2.9368   -7.3335   -0.8154 C   0  0  0  0  0  0  0  0  0  0  0  0
   -2.2359   -8.3398   -1.6915 C   0  0  0  0  0  0  0  0  0  0  0  0
   -0.4621   -4.5255   -0.0309 C   0  0  0  0  0  0  0  0  0  0  0  0
   -1.3483   -3.5200   -0.0112 N   0  0  0  0  0  0  0  0  0  0  0  0
   -0.8712   -2.2861    0.0447 C   0  0  0  0  0  0  0  0  0  0  0  0
   -1.9070   -1.1579    0.0885 C   0  0  1  0  0  0  0  0  0  0  0  0
   -2.9755   -1.5519    0.8159 F   0  0  0  0  0  0  0  0  0  0  0  0
   -1.3817   -0.0610    0.6717 F   0  0  0  0  0  0  0  0  0  0  0  0
   -2.4742   -0.7315   -1.3003 C   0  0  1  0  0  0  0  0  0  0  0  0
   -3.0712   -1.7981   -1.8669 F   0  0  0  0  0  0  0  0  0  0  0  0
   -3.3998    0.2262   -1.0944 F   0  0  0  0  0  0  0  0  0  0  0  0
   -1.4547   -0.1729   -2.3290 C   0  0  1  0  0  0  0  0  0  0  0  0
   -0.5778   -1.1214   -2.6762 F   0  0  0  0  0  0  0  0  0  0  0  0
   -2.1101    0.2133   -3.4246 F   0  0  0  0  0  0  0  0  0  0  0  0
   -0.7924    0.8705   -1.8384 F   0  0  0  0  0  0  0  0  0  0  0  0
    0.4004   -1.9164    0.0531 N   0  0  0  0  0  0  0  0  0  0  0  0
    1.3284   -2.8828    0.0299 C   0  0  0  0  0  0  0  0  0  0  0  0
    0.9386   -4.2549    0.0034 C   0  0  0  0  0  0  0  0  0  0  0  0
    1.9003   -5.3033    0.0084 C   0  0  0  0  0  0  0  0  0  0  0  0
    3.7976   -7.3717    0.0705 C   0  0  0  0  0  0  0  0  0  0  0  0
    4.7607   -8.4210    0.0983 C   0  0  0  0  0  0  0  0  0  0  0  0
    5.8593   -0.7125   -2.0959 H   0  0  0  0  0  0  0  0  0  0  0  0
    4.9155   -2.2120   -1.9427 H   0  0  0  0  0  0  0  0  0  0  0  0
    6.1899   -1.8277   -0.7641 H   0  0  0  0  0  0  0  0  0  0  0  0
    5.3817    1.3408   -0.6510 H   0  0  0  0  0  0  0  0  0  0  0  0
    3.3894    2.3301    0.7790 H   0  0  0  0  0  0  0  0  0  0  0  0
    4.7006   -3.3313    0.1594 H   0  0  0  0  0  0  0  0  0  0  0  0
    6.0172   -4.7482    0.0849 H   0  0  0  0  0  0  0  0  0  0  0  0
   10.9706   -4.7418    1.3026 H   0  0  0  0  0  0  0  0  0  0  0  0
   11.2974   -6.4136   -0.7167 H   0  0  0  0  0  0  0  0  0  0  0  0
    9.7935   -7.5538   -2.5416 H   0  0  0  0  0  0  0  0  0  0  0  0
    8.0628   -7.8396   -2.2394 H   0  0  0  0  0  0  0  0  0  0  0  0
    9.2693   -8.8487   -1.4334 H   0  0  0  0  0  0  0  0  0  0  0  0
    0.6129  -14.3431   -1.0358 H   0  0  0  0  0  0  0  0  0  0  0  0
    2.1813  -14.7283    1.0547 H   0  0  0  0  0  0  0  0  0  0  0  0
    3.3834  -13.2572    2.8651 H   0  0  0  0  0  0  0  0  0  0  0  0
    3.7997  -11.5609    2.5219 H   0  0  0  0  0  0  0  0  0  0  0  0
    4.7523  -12.8602    1.7912 H   0  0  0  0  0  0  0  0  0  0  0  0
    0.9935   -9.3589    0.0285 H   0  0  0  0  0  0  0  0  0  0  0  0
   -0.3086   -7.9270   -0.0082 H   0  0  0  0  0  0  0  0  0  0  0  0
   -5.8497   -6.1763    0.4842 H   0  0  0  0  0  0  0  0  0  0  0  0
   -4.9861   -8.1544   -1.0434 H   0  0  0  0  0  0  0  0  0  0  0  0
   -2.9246   -8.7114   -2.4656 H   0  0  0  0  0  0  0  0  0  0  0  0
   -1.8911   -9.2227   -1.1248 H   0  0  0  0  0  0  0  0  0  0  0  0
   -1.3588   -7.9113   -2.1986 H   0  0  0  0  0  0  0  0  0  0  0  0
  1  2  1  0
  1 71  1  0
  1 72  1  0
  1 73  1  0
  2  3  1  0
  2  6  2  0
  3  4  2  0
  3 74  1  0
  4  5  1  0
  4 75  1  0
  5  6  1  0
  6  7  1  0
  7  8  2  0
  7 66  1  0
  8  9  1  0
  8 76  1  0
  9 10  2  0
  9 68  1  0
 10 11  1  0
 10 69  1  0
 11 12  2  0
 11 77  1  0
 12 13  1  0
 12 19  1  0
 13 14  1  0
 13 17  2  0
 14 15  1  0
 15 16  2  0
 15 78  1  0
 16 17  1  0
 16 79  1  0
 17 18  1  0
 18 80  1  0
 18 81  1  0
 18 82  1  0
 19 20  1  0
 19 70  2  0
 20 21  2  0
 21 22  1  0
 21 32  1  0
 22 23  1  1
 22 24  1  0
 22 25  1  0
 25 26  1  6
 25 27  1  0
 25 28  1  0
 28 29  1  1
 28 30  1  0
 28 31  1  0
 32 33  2  0
 33 34  1  0
 33 70  1  0
 34 35  1  0
 34 41  2  0
 35 36  1  0
 35 39  2  0
 36 37  1  0
 37 38  2  0
 37 83  1  0
 38 39  1  0
 38 84  1  0
 39 40  1  0
 40 85  1  0
 40 86  1  0
 40 87  1  0
 41 42  1  0
 41 88  1  0
 42 43  1  0
 42 69  2  0
 43 44  1  0
 43 68  2  0
 44 45  2  0
 44 89  1  0
 45 46  1  0
 45 52  1  0
 46 47  1  0
 46 50  2  0
 47 48  1  0
 48 49  2  0
 48 90  1  0
 49 50  1  0
 49 91  1  0
 50 51  1  0
 51 92  1  0
 51 93  1  0
 51 94  1  0
 52 53  1  0
 52 67  2  0
 53 54  2  0
 54 55  1  0
 54 65  1  0
 55 56  1  1
 55 57  1  0
 55 58  1  0
 58 59  1  6
 58 60  1  0
 58 61  1  0
 61 62  1  6
 61 63  1  0
 61 64  1  0
 65 66  2  0
 66 67  1  0
 67 68  1  0
 69 70  1  0
M  END

