
     RDKit          3D

 47 50  0  0  0  0  0  0  0  0999 V2000
    2.8764   -1.3096    0.4511 C   0  0  0  0  0  0  0  0  0  0  0  0
    2.3566    0.0058    0.0980 N   0  0  0  0  0  0  0  0  0  0  0  0
    0.9910    0.2424    0.5507 C   0  0  0  0  0  0  0  0  0  0  0  0
    3.0095    0.8164   -0.8054 C   0  0  0  0  0  0  0  0  0  0  0  0
    3.8745    0.2093   -1.7460 C   0  0  0  0  0  0  0  0  0  0  0  0
    4.4906    0.8985   -2.8092 C   0  0  0  0  0  0  0  0  0  0  0  0
    5.3510    0.2015   -3.7819 C   0  0  0  0  0  0  0  0  0  0  0  0
    5.2028   -1.1814   -4.0651 C   0  0  0  0  0  0  0  0  0  0  0  0
    6.0087   -1.8329   -4.9797 C   0  0  0  0  0  0  0  0  0  0  0  0
    7.0481   -1.1429   -5.6860 C   0  0  0  0  0  0  0  0  0  0  0  0
    7.8719   -1.7971   -6.6090 C   0  0  0  0  0  0  0  0  0  0  0  0
    8.5999   -2.3805   -7.4208 C   0  0  0  0  0  0  0  0  0  0  0  0
    9.4239   -3.0424   -8.3420 C   0  0  0  0  0  0  0  0  0  0  0  0
    9.2932   -4.4371   -8.6194 C   0  0  0  0  0  0  0  0  0  0  0  0
   10.1397   -5.0356   -9.5421 C   0  0  0  0  0  0  0  0  0  0  0  0
   11.1070   -4.3966  -10.2236 N   0  0  0  0  0  0  0  0  0  0  0  0
   11.2352   -3.0826   -9.9675 C   0  0  0  0  0  0  0  0  0  0  0  0
   10.4529   -2.3706   -9.0691 C   0  0  0  0  0  0  0  0  0  0  0  0
    7.1950    0.2520   -5.3952 C   0  0  0  0  0  0  0  0  0  0  0  0
    6.3720    0.8922   -4.4876 C   0  0  0  0  0  0  0  0  0  0  0  0
    4.2123    2.2774   -2.8825 C   0  0  0  0  0  0  0  0  0  0  0  0
    3.4381    2.9648   -1.9171 C   0  0  0  0  0  0  0  0  0  0  0  0
    3.2830    4.3767   -1.9929 C   0  0  0  0  0  0  0  0  0  0  0  0
    2.6136    5.0796   -1.0048 C   0  0  0  0  0  0  0  0  0  0  0  0
    2.0944    4.3958    0.1092 C   0  0  0  0  0  0  0  0  0  0  0  0
    2.2079    3.0102    0.1977 C   0  0  0  0  0  0  0  0  0  0  0  0
    2.8318    2.2584   -0.8222 C   0  0  0  0  0  0  0  0  0  0  0  0
    2.5419   -1.5539    1.4701 H   0  0  0  0  0  0  0  0  0  0  0  0
    3.9721   -1.3132    0.4363 H   0  0  0  0  0  0  0  0  0  0  0  0
    2.5002   -2.0953   -0.2277 H   0  0  0  0  0  0  0  0  0  0  0  0
    0.4020   -0.6732    0.3745 H   0  0  0  0  0  0  0  0  0  0  0  0
    0.5299    1.0642   -0.0053 H   0  0  0  0  0  0  0  0  0  0  0  0
    0.9528    0.4615    1.6313 H   0  0  0  0  0  0  0  0  0  0  0  0
    4.0295   -0.8655   -1.6874 H   0  0  0  0  0  0  0  0  0  0  0  0
    4.4051   -1.7574   -3.5870 H   0  0  0  0  0  0  0  0  0  0  0  0
    5.8514   -2.8936   -5.1858 H   0  0  0  0  0  0  0  0  0  0  0  0
    8.5300   -5.0260   -8.1061 H   0  0  0  0  0  0  0  0  0  0  0  0
   10.0321   -6.1087   -9.7489 H   0  0  0  0  0  0  0  0  0  0  0  0
   12.0239   -2.5577  -10.5226 H   0  0  0  0  0  0  0  0  0  0  0  0
   10.6198   -1.3021   -8.9164 H   0  0  0  0  0  0  0  0  0  0  0  0
    7.9832    0.8119   -5.9028 H   0  0  0  0  0  0  0  0  0  0  0  0
    6.5495    1.9529   -4.2898 H   0  0  0  0  0  0  0  0  0  0  0  0
    4.6177    2.8568   -3.7136 H   0  0  0  0  0  0  0  0  0  0  0  0
    3.7282    4.9048   -2.8393 H   0  0  0  0  0  0  0  0  0  0  0  0
    2.5120    6.1646   -1.0773 H   0  0  0  0  0  0  0  0  0  0  0  0
    1.6060    4.9494    0.9140 H   0  0  0  0  0  0  0  0  0  0  0  0
    1.8293    2.5203    1.0932 H   0  0  0  0  0  0  0  0  0  0  0  0
  1  2  1  0
  1 28  1  0
  1 29  1  0
  1 30  1  0
  2  3  1  0
  2  4  1  0
  3 31  1  0
  3 32  1  0
  3 33  1  0
  4  5  2  0
  4 27  1  0
  5  6  1  0
  5 34  1  0
  6  7  1  0
  6 21  2  0
  7  8  2  0
  7 20  1  0
  8  9  1  0
  8 35  1  0
  9 10  2  0
  9 36  1  0
 10 11  1  0
 10 19  1  0
 11 12  3  0
 12 13  1  0
 13 14  2  0
 13 18  1  0
 14 15  1  0
 14 37  1  0
 15 16  2  0
 15 38  1  0
 16 17  1  0
 17 18  2  0
 17 39  1  0
 18 40  1  0
 19 20  2  0
 19 41  1  0
 20 42  1  0
 21 22  1  0
 21 43  1  0
 22 23  1  0
 22 27  2  0
 23 24  2  0
 23 44  1  0
 24 25  1  0
 24 45  1  0
 25 26  2  0
 25 46  1  0
 26 27  1  0
 26 47  1  0
M  END

