
     RDKit          3D

 57 60  0  0  0  0  0  0  0  0999 V2000
    0.9825    0.6569   -4.8886 C   0  0  0  0  0  0  0  0  0  0  0  0
    2.3895    0.2647   -4.4117 C   0  0  0  0  0  0  0  0  0  0  0  0
    2.6959    0.4396   -2.5424 Si  0  0  1  0  0  4  0  0  0  0  0  0
    2.4734    2.2896   -2.1324 C   0  0  0  0  0  0  0  0  0  0  0  0
    1.4202   -0.4477   -1.4604 C   0  0  0  0  0  0  0  0  0  0  0  0
    4.5290    0.0060   -2.1088 C   0  0  0  0  0  0  0  0  0  0  0  0
    5.3230    1.0653   -1.6682 C   0  0  0  0  0  0  0  0  0  0  0  0
    6.7124    0.9401   -1.3405 C   0  0  0  0  0  0  0  0  0  0  0  0
    7.4664    2.0222   -0.8320 C   0  0  0  0  0  0  0  0  0  0  0  0
    8.8322    1.9002   -0.5855 C   0  0  0  0  0  0  0  0  0  0  0  0
    9.5167    0.6899   -0.8781 C   0  0  0  0  0  0  0  0  0  0  0  0
   10.9195    0.5401   -0.6767 C   0  0  0  0  0  0  0  0  0  0  0  0
   11.5704   -0.6563   -0.9939 C   0  0  0  0  0  0  0  0  0  0  0  0
   10.8610   -1.7295   -1.5260 C   0  0  0  0  0  0  0  0  0  0  0  0
    9.4527   -1.6330   -1.7498 C   0  0  0  0  0  0  0  0  0  0  0  0
    8.6952   -2.6834   -2.3184 C   0  0  0  0  0  0  0  0  0  0  0  0
    7.3144   -2.5705   -2.4949 C   0  0  0  0  0  0  0  0  0  0  0  0
    6.5934   -1.4154   -2.0878 C   0  0  0  0  0  0  0  0  0  0  0  0
    5.1436   -1.2860   -2.1972 C   0  0  0  0  0  0  0  0  0  0  0  0
    4.2578   -2.4696   -2.3657 C   0  0  0  0  0  0  0  0  0  0  0  0
    3.1909   -2.3854   -2.9867 O   0  0  0  0  0  0  0  0  0  0  0  0
    4.6531   -3.6399   -1.7646 N   0  0  0  0  0  0  0  0  0  0  0  0
    3.9059   -4.9148   -1.7626 C   0  0  1  0  0  0  0  0  0  0  0  0
    3.7064   -5.4126   -3.2068 C   0  0  0  0  0  0  0  0  0  0  0  0
    4.7688   -5.9198   -0.9830 C   0  0  0  0  0  0  0  0  0  0  0  0
    2.5426   -4.7470   -1.0624 C   0  0  0  0  0  0  0  0  0  0  0  0
    7.3646   -0.3065   -1.6022 C   0  0  0  0  0  0  0  0  0  0  0  0
    8.7703   -0.4174   -1.4098 C   0  0  0  0  0  0  0  0  0  0  0  0
    0.8763    0.5324   -5.9797 H   0  0  0  0  0  0  0  0  0  0  0  0
    0.7398    1.7085   -4.6606 H   0  0  0  0  0  0  0  0  0  0  0  0
    0.2043    0.0336   -4.4173 H   0  0  0  0  0  0  0  0  0  0  0  0
    3.1464    0.8869   -4.9246 H   0  0  0  0  0  0  0  0  0  0  0  0
    2.6079   -0.7783   -4.6826 H   0  0  0  0  0  0  0  0  0  0  0  0
    1.4347    2.5779   -2.3649 H   0  0  0  0  0  0  0  0  0  0  0  0
    3.1316    2.9462   -2.7251 H   0  0  0  0  0  0  0  0  0  0  0  0
    2.6365    2.5119   -1.0647 H   0  0  0  0  0  0  0  0  0  0  0  0
    0.4393    0.0464   -1.5623 H   0  0  0  0  0  0  0  0  0  0  0  0
    1.7081   -0.3900   -0.3972 H   0  0  0  0  0  0  0  0  0  0  0  0
    1.3128   -1.5047   -1.7361 H   0  0  0  0  0  0  0  0  0  0  0  0
    4.8846    2.0567   -1.5415 H   0  0  0  0  0  0  0  0  0  0  0  0
    6.9605    2.9715   -0.6362 H   0  0  0  0  0  0  0  0  0  0  0  0
    9.3947    2.7441   -0.1788 H   0  0  0  0  0  0  0  0  0  0  0  0
   11.4869    1.3849   -0.2778 H   0  0  0  0  0  0  0  0  0  0  0  0
   12.6473   -0.7453   -0.8300 H   0  0  0  0  0  0  0  0  0  0  0  0
   11.3736   -2.6602   -1.7830 H   0  0  0  0  0  0  0  0  0  0  0  0
    9.2041   -3.5994   -2.6297 H   0  0  0  0  0  0  0  0  0  0  0  0
    6.7814   -3.3932   -2.9700 H   0  0  0  0  0  0  0  0  0  0  0  0
    5.4463   -3.5814   -1.1369 H   0  0  0  0  0  0  0  0  0  0  0  0
    4.6782   -5.5717   -3.7014 H   0  0  0  0  0  0  0  0  0  0  0  0
    3.1328   -4.6805   -3.7898 H   0  0  0  0  0  0  0  0  0  0  0  0
    3.1620   -6.3703   -3.2053 H   0  0  0  0  0  0  0  0  0  0  0  0
    5.7523   -6.0569   -1.4613 H   0  0  0  0  0  0  0  0  0  0  0  0
    4.2714   -6.9003   -0.9448 H   0  0  0  0  0  0  0  0  0  0  0  0
    4.9304   -5.5862    0.0559 H   0  0  0  0  0  0  0  0  0  0  0  0
    1.9168   -4.0274   -1.6062 H   0  0  0  0  0  0  0  0  0  0  0  0
    2.6774   -4.3842   -0.0308 H   0  0  0  0  0  0  0  0  0  0  0  0
    2.0133   -5.7124   -1.0210 H   0  0  0  0  0  0  0  0  0  0  0  0
  1  2  1  0
  1 29  1  0
  1 30  1  0
  1 31  1  0
  3  2  1  6
  2 32  1  0
  2 33  1  0
  3  4  1  0
  3  5  1  0
  3  6  1  0
  4 34  1  0
  4 35  1  0
  4 36  1  0
  5 37  1  0
  5 38  1  0
  5 39  1  0
  6  7  2  0
  6 19  1  0
  7  8  1  0
  7 40  1  0
  8  9  2  0
  8 27  1  0
  9 10  1  0
  9 41  1  0
 10 11  2  0
 10 42  1  0
 11 12  1  0
 11 28  1  0
 12 13  2  0
 12 43  1  0
 13 14  1  0
 13 44  1  0
 14 15  2  0
 14 45  1  0
 15 16  1  0
 15 28  1  0
 16 17  2  0
 16 46  1  0
 17 18  1  0
 17 47  1  0
 18 19  2  0
 18 27  1  0
 19 20  1  0
 20 21  2  0
 20 22  1  0
 23 22  1  1
 22 48  1  0
 23 24  1  0
 23 25  1  0
 23 26  1  0
 24 49  1  0
 24 50  1  0
 24 51  1  0
 25 52  1  0
 25 53  1  0
 25 54  1  0
 26 55  1  0
 26 56  1  0
 26 57  1  0
 27 28  2  0
M  END

