
     RDKit          3D

 62 69  0  0  0  0  0  0  0  0999 V2000
   -1.9413   -2.8697    1.7375 C   0  0  0  0  0  0  0  0  0  0  0  0
   -2.0920   -1.9115    0.7296 C   0  0  0  0  0  0  0  0  0  0  0  0
   -0.9839   -1.2113    0.2517 C   0  0  0  0  0  0  0  0  0  0  0  0
    0.3111   -1.4561    0.7598 C   0  0  0  0  0  0  0  0  0  0  0  0
    1.4649   -0.6642    0.2784 C   0  0  0  0  0  0  0  0  0  0  0  0
    1.3282    0.7335    0.1859 C   0  0  0  0  0  0  0  0  0  0  0  0
    2.3859    1.5565   -0.1641 C   0  0  0  0  0  0  0  0  0  0  0  0
    3.6734    1.0283   -0.4578 C   0  0  0  0  0  0  0  0  0  0  0  0
    4.7947    1.8850   -0.7666 C   0  0  0  0  0  0  0  0  0  0  0  0
    4.6743    3.3023   -0.7368 C   0  0  0  0  0  0  0  0  0  0  0  0
    5.7782    4.1129   -0.9061 C   0  0  0  0  0  0  0  0  0  0  0  0
    7.0641    3.5900   -1.1738 C   0  0  0  0  0  0  0  0  0  0  0  0
    8.2091    4.5138   -1.0069 C   0  0  0  0  0  0  0  0  0  0  0  0
    9.3365    4.1412   -0.2438 C   0  0  0  0  0  0  0  0  0  0  0  0
   10.3652    5.0467    0.0094 C   0  0  0  0  0  0  0  0  0  0  0  0
   10.3030    6.3504   -0.4967 C   0  0  0  0  0  0  0  0  0  0  0  0
    9.1933    6.7382   -1.2541 C   0  0  0  0  0  0  0  0  0  0  0  0
    8.1581    5.8356   -1.4995 C   0  0  0  0  0  0  0  0  0  0  0  0
    7.1875    2.1794   -1.4332 C   0  0  0  0  0  0  0  0  0  0  0  0
    8.3662    1.5804   -2.0022 C   0  0  0  0  0  0  0  0  0  0  0  0
    9.3795    2.3140   -2.7954 C   0  0  0  0  0  0  0  0  0  0  0  0
   10.7537    2.0155   -2.6781 C   0  0  0  0  0  0  0  0  0  0  0  0
   11.6990    2.6322   -3.4985 C   0  0  0  0  0  0  0  0  0  0  0  0
   11.2960    3.5536   -4.4699 C   0  0  0  0  0  0  0  0  0  0  0  0
    9.9356    3.8532   -4.6079 C   0  0  0  0  0  0  0  0  0  0  0  0
    8.9917    3.2463   -3.7812 C   0  0  0  0  0  0  0  0  0  0  0  0
    8.5012    0.1756   -1.9397 C   0  0  0  0  0  0  0  0  0  0  0  0
    7.4833   -0.6428   -1.4926 C   0  0  0  0  0  0  0  0  0  0  0  0
    6.2194   -0.1058   -1.1238 C   0  0  0  0  0  0  0  0  0  0  0  0
    5.1069   -0.9678   -0.7760 C   0  0  0  0  0  0  0  0  0  0  0  0
    5.2339   -2.3823   -0.7871 C   0  0  0  0  0  0  0  0  0  0  0  0
    4.1486   -3.2015   -0.4999 C   0  0  0  0  0  0  0  0  0  0  0  0
    2.9127   -2.6529   -0.1606 C   0  0  0  0  0  0  0  0  0  0  0  0
    2.7296   -1.2490   -0.0847 C   0  0  0  0  0  0  0  0  0  0  0  0
    3.8384   -0.3932   -0.4344 C   0  0  0  0  0  0  0  0  0  0  0  0
    6.0677    1.3182   -1.1064 C   0  0  0  0  0  0  0  0  0  0  0  0
    0.4422   -2.4240    1.7810 C   0  0  0  0  0  0  0  0  0  0  0  0
   -0.6682   -3.1177    2.2629 C   0  0  0  0  0  0  0  0  0  0  0  0
   -2.8096   -3.4164    2.1139 H   0  0  0  0  0  0  0  0  0  0  0  0
   -3.0806   -1.7115    0.3076 H   0  0  0  0  0  0  0  0  0  0  0  0
   -1.1130   -0.4780   -0.5479 H   0  0  0  0  0  0  0  0  0  0  0  0
    0.3697    1.1869    0.4481 H   0  0  0  0  0  0  0  0  0  0  0  0
    2.2157    2.6318   -0.1897 H   0  0  0  0  0  0  0  0  0  0  0  0
    3.7175    3.7685   -0.5074 H   0  0  0  0  0  0  0  0  0  0  0  0
    5.6731    5.1886   -0.7508 H   0  0  0  0  0  0  0  0  0  0  0  0
    9.3878    3.1336    0.1739 H   0  0  0  0  0  0  0  0  0  0  0  0
   11.2206    4.7354    0.6149 H   0  0  0  0  0  0  0  0  0  0  0  0
   11.1120    7.0582   -0.2997 H   0  0  0  0  0  0  0  0  0  0  0  0
    9.1346    7.7514   -1.6608 H   0  0  0  0  0  0  0  0  0  0  0  0
    7.3047    6.1500   -2.1052 H   0  0  0  0  0  0  0  0  0  0  0  0
   11.0857    1.3080   -1.9143 H   0  0  0  0  0  0  0  0  0  0  0  0
   12.7589    2.3937   -3.3757 H   0  0  0  0  0  0  0  0  0  0  0  0
   12.0351    4.0334   -5.1165 H   0  0  0  0  0  0  0  0  0  0  0  0
    9.6065    4.5614   -5.3731 H   0  0  0  0  0  0  0  0  0  0  0  0
    7.9318    3.4745   -3.9118 H   0  0  0  0  0  0  0  0  0  0  0  0
    9.4128   -0.2804   -2.3314 H   0  0  0  0  0  0  0  0  0  0  0  0
    7.6474   -1.7190   -1.4880 H   0  0  0  0  0  0  0  0  0  0  0  0
    6.1852   -2.8465   -1.0420 H   0  0  0  0  0  0  0  0  0  0  0  0
    4.2627   -4.2875   -0.5476 H   0  0  0  0  0  0  0  0  0  0  0  0
    2.0678   -3.3140    0.0289 H   0  0  0  0  0  0  0  0  0  0  0  0
    1.4239   -2.6067    2.2230 H   0  0  0  0  0  0  0  0  0  0  0  0
   -0.5401   -3.8507    3.0639 H   0  0  0  0  0  0  0  0  0  0  0  0
  1  2  2  0
  1 38  1  0
  1 39  1  0
  2  3  1  0
  2 40  1  0
  3  4  2  0
  3 41  1  0
  4  5  1  0
  4 37  1  0
  5  6  2  0
  5 34  1  0
  6  7  1  0
  6 42  1  0
  7  8  2  0
  7 43  1  0
  8  9  1  0
  8 35  1  0
  9 10  2  0
  9 36  1  0
 10 11  1  0
 10 44  1  0
 11 12  2  0
 11 45  1  0
 12 13  1  0
 12 19  1  0
 13 14  2  0
 13 18  1  0
 14 15  1  0
 14 46  1  0
 15 16  2  0
 15 47  1  0
 16 17  1  0
 16 48  1  0
 17 18  2  0
 17 49  1  0
 18 50  1  0
 19 20  1  0
 19 36  2  0
 20 21  1  0
 20 27  2  0
 21 22  2  0
 21 26  1  0
 22 23  1  0
 22 51  1  0
 23 24  2  0
 23 52  1  0
 24 25  1  0
 24 53  1  0
 25 26  2  0
 25 54  1  0
 26 55  1  0
 27 28  1  0
 27 56  1  0
 28 29  2  0
 28 57  1  0
 29 30  1  0
 29 36  1  0
 30 31  1  0
 30 35  2  0
 31 32  2  0
 31 58  1  0
 32 33  1  0
 32 59  1  0
 33 34  2  0
 33 60  1  0
 34 35  1  0
 37 38  2  0
 37 61  1  0
 38 62  1  0
M  END

