
     RDKit          3D

 48 53  0  0  0  0  0  0  0  0999 V2000
    4.5262    0.2514    0.5262 C   0  0  0  0  0  0  0  0  0  0  0  0
    3.8074   -0.4864   -0.3243 C   0  0  0  0  0  0  0  0  0  0  0  0
    3.8450   -1.9917   -0.4540 C   0  0  2  0  0  0  0  0  0  0  0  0
    2.8977   -2.3758   -1.5315 N   0  0  0  0  0  0  0  0  0  0  0  0
    2.7960   -3.5877   -1.7775 N   0  0  0  0  0  0  0  0  0  0  0  0
    3.6354   -4.5047   -0.9658 C   0  0  2  0  0  0  0  0  0  0  0  0
    3.3475   -5.9170   -1.4202 C   0  0  0  0  0  0  0  0  0  0  0  0
    3.9642   -7.0232   -0.9956 C   0  0  0  0  0  0  0  0  0  0  0  0
    3.3008   -4.2655    0.5462 C   0  0  2  0  0  0  0  0  0  0  0  0
    1.8752   -4.6117    1.0537 C   0  0  1  0  0  0  0  0  0  0  0  0
    1.9374   -4.5684    2.6014 C   0  0  0  0  0  0  0  0  0  0  0  0
    2.0560   -3.0383    2.9075 C   0  0  0  0  0  0  0  0  0  0  0  0
    2.0517   -2.3984    1.4965 C   0  0  2  0  0  0  0  0  0  0  0  0
    1.0597   -3.3318    0.7689 C   0  0  0  0  0  0  0  0  0  0  0  0
    3.4238   -2.7393    0.8555 C   0  0  2  0  0  0  0  0  0  0  0  0
    5.1312   -4.0784   -1.1335 C   0  0  1  0  0  0  0  0  0  0  0  0
    5.7864   -4.2003   -2.5362 C   0  0  2  0  0  0  0  0  0  0  0  0
    5.5176   -5.1206   -3.0724 H   0  0  0  0  0  0  0  0  0  0  0  0
    7.3107   -4.0183   -2.3247 C   0  0  0  0  0  0  0  0  0  0  0  0
    7.4430   -2.4923   -2.0027 C   0  0  0  0  0  0  0  0  0  0  0  0
    5.9782   -1.9926   -2.0730 C   0  0  1  0  0  0  0  0  0  0  0  0
    5.8830   -0.9041   -2.1867 H   0  0  0  0  0  0  0  0  0  0  0  0
    5.4384   -2.8640   -3.2274 C   0  0  0  0  0  0  0  0  0  0  0  0
    5.2597   -2.5537   -0.8165 C   0  0  1  0  0  0  0  0  0  0  0  0
    5.8867   -2.3774    0.0710 H   0  0  0  0  0  0  0  0  0  0  0  0
    4.4303    1.3403    0.5493 H   0  0  0  0  0  0  0  0  0  0  0  0
    5.2371   -0.1905    1.2320 H   0  0  0  0  0  0  0  0  0  0  0  0
    3.1080   -0.0009   -1.0142 H   0  0  0  0  0  0  0  0  0  0  0  0
    2.5461   -5.9875   -2.1642 H   0  0  0  0  0  0  0  0  0  0  0  0
    4.7718   -6.9984   -0.2564 H   0  0  0  0  0  0  0  0  0  0  0  0
    3.6822   -8.0085   -1.3765 H   0  0  0  0  0  0  0  0  0  0  0  0
    4.0407   -4.8554    1.1084 H   0  0  0  0  0  0  0  0  0  0  0  0
    1.4774   -5.5532    0.6507 H   0  0  0  0  0  0  0  0  0  0  0  0
    2.7815   -5.1516    3.0017 H   0  0  0  0  0  0  0  0  0  0  0  0
    1.0183   -4.9921    3.0349 H   0  0  0  0  0  0  0  0  0  0  0  0
    2.9629   -2.7854    3.4791 H   0  0  0  0  0  0  0  0  0  0  0  0
    1.1952   -2.6811    3.4939 H   0  0  0  0  0  0  0  0  0  0  0  0
    1.8163   -1.3254    1.4943 H   0  0  0  0  0  0  0  0  0  0  0  0
    0.9056   -3.1079   -0.2914 H   0  0  0  0  0  0  0  0  0  0  0  0
    0.0743   -3.3518    1.2626 H   0  0  0  0  0  0  0  0  0  0  0  0
    4.2262   -2.5377    1.5815 H   0  0  0  0  0  0  0  0  0  0  0  0
    5.6981   -4.6880   -0.4135 H   0  0  0  0  0  0  0  0  0  0  0  0
    7.8597   -4.2815   -3.2421 H   0  0  0  0  0  0  0  0  0  0  0  0
    7.7005   -4.6609   -1.5196 H   0  0  0  0  0  0  0  0  0  0  0  0
    8.0612   -1.9780   -2.7547 H   0  0  0  0  0  0  0  0  0  0  0  0
    7.9032   -2.3004   -1.0206 H   0  0  0  0  0  0  0  0  0  0  0  0
    6.0122   -2.7191   -4.1574 H   0  0  0  0  0  0  0  0  0  0  0  0
    4.3773   -2.7228   -3.4563 H   0  0  0  0  0  0  0  0  0  0  0  0
  1  2  2  0
  1 26  1  0
  1 27  1  0
  3  2  1  1
  2 28  1  0
  3  4  1  0
  3 15  1  0
  3 24  1  0
  4  5  2  0
  5  6  1  0
  6  7  1  6
  6  9  1  0
  6 16  1  0
  7  8  2  0
  7 29  1  0
  8 30  1  0
  8 31  1  0
  9 10  1  0
  9 15  1  0
  9 32  1  1
 10 11  1  0
 10 14  1  0
 10 33  1  1
 11 12  1  0
 11 34  1  0
 11 35  1  0
 12 13  1  0
 12 36  1  0
 12 37  1  0
 13 14  1  0
 13 15  1  0
 13 38  1  1
 14 39  1  0
 14 40  1  0
 15 41  1  1
 16 17  1  0
 16 24  1  0
 16 42  1  1
 17 18  1  6
 17 19  1  0
 17 23  1  0
 19 20  1  0
 19 43  1  0
 19 44  1  0
 20 21  1  0
 20 45  1  0
 20 46  1  0
 21 22  1  6
 21 23  1  0
 21 24  1  0
 23 47  1  0
 23 48  1  0
 24 25  1  1
M  END

