
     RDKit          3D

128144  0  0  0  0  0  0  0  0999 V2000
    1.4603    3.6578    9.0656 C   0  0  0  0  0  0  0  0  0  0  0  0
    2.6328    3.5238    8.3109 C   0  0  0  0  0  0  0  0  0  0  0  0
    2.5631    3.2215    6.9511 C   0  0  0  0  0  0  0  0  0  0  0  0
    1.3169    3.0451    6.3228 C   0  0  0  0  0  0  0  0  0  0  0  0
    1.2467    2.7186    4.8706 C   0  0  0  0  0  0  0  0  0  0  0  0
    0.0178    2.5366    4.3258 N   0  0  0  0  0  0  0  0  0  0  0  0
    0.0250    2.2515    3.0105 C   0  0  0  0  0  0  0  0  0  0  0  0
   -1.3155    2.0816    2.3639 C   0  0  0  0  0  0  0  0  0  0  0  0
   -2.4657    1.9218    3.1548 C   0  0  0  0  0  0  0  0  0  0  0  0
   -3.7211    1.7669    2.5623 C   0  0  0  0  0  0  0  0  0  0  0  0
   -3.8497    1.7834    1.1699 C   0  0  0  0  0  0  0  0  0  0  0  0
   -2.7111    1.9545    0.3744 C   0  0  0  0  0  0  0  0  0  0  0  0
   -1.4551    2.0999    0.9672 C   0  0  0  0  0  0  0  0  0  0  0  0
    1.1066    2.1189    2.2547 N   0  0  0  0  0  0  0  0  0  0  0  0
    2.3122    2.3125    2.8860 C   0  0  0  0  0  0  0  0  0  0  0  0
    3.5474    2.1764    2.1485 C   0  0  0  0  0  0  0  0  0  0  0  0
    3.7012    1.4830    0.8891 C   0  0  0  0  0  0  0  0  0  0  0  0
    2.5942    0.7662    0.2953 N   0  0  0  0  0  0  0  0  0  0  0  0
    2.1735   -0.4701    0.6610 C   0  0  0  0  0  0  0  0  0  0  0  0
    2.6434   -1.2972    1.7039 C   0  0  0  0  0  0  0  0  0  0  0  0
    2.0438   -2.5290    1.8739 C   0  0  0  0  0  0  0  0  0  0  0  0
    0.9696   -2.9819    1.0455 C   0  0  0  0  0  0  0  0  0  0  0  0
    0.3546   -4.2911    1.2589 C   0  0  0  0  0  0  0  0  0  0  0  0
   -0.9713   -4.5634    0.8000 C   0  0  0  0  0  0  0  0  0  0  0  0
   -1.5884   -5.7890    0.9839 C   0  0  0  0  0  0  0  0  0  0  0  0
   -0.8653   -6.8039    1.6360 C   0  0  0  0  0  0  0  0  0  0  0  0
    0.4588   -6.5693    2.1164 C   0  0  0  0  0  0  0  0  0  0  0  0
    1.0516   -5.3267    1.9310 C   0  0  0  0  0  0  0  0  0  0  0  0
    0.8948   -7.8050    2.7460 C   0  0  0  0  0  0  0  0  0  0  0  0
    2.0767   -8.2063    3.3808 C   0  0  0  0  0  0  0  0  0  0  0  0
    2.1682   -9.5078    3.8771 C   0  0  0  0  0  0  0  0  0  0  0  0
    1.0953  -10.4060    3.7390 C   0  0  0  0  0  0  0  0  0  0  0  0
   -0.0939  -10.0292    3.1099 C   0  0  0  0  0  0  0  0  0  0  0  0
   -0.1809   -8.7216    2.6241 C   0  0  0  0  0  0  0  0  0  0  0  0
   -1.2408   -8.0943    1.9463 N   0  0  0  0  0  0  0  0  0  0  0  0
   -2.4936   -8.6988    1.6272 C   0  0  0  0  0  0  0  0  0  0  0  0
   -3.3445   -9.1286    2.6550 C   0  0  0  0  0  0  0  0  0  0  0  0
   -4.5676   -9.7241    2.3378 C   0  0  0  0  0  0  0  0  0  0  0  0
   -4.9498   -9.8809    1.0018 C   0  0  0  0  0  0  0  0  0  0  0  0
   -4.1013   -9.4466   -0.0211 C   0  0  0  0  0  0  0  0  0  0  0  0
   -2.8702   -8.8624    0.2869 C   0  0  0  0  0  0  0  0  0  0  0  0
    0.5131   -2.1246    0.0002 C   0  0  0  0  0  0  0  0  0  0  0  0
    1.1060   -0.8945   -0.1991 C   0  0  0  0  0  0  0  0  0  0  0  0
    0.9096    0.1904   -1.1547 C   0  0  0  0  0  0  0  0  0  0  0  0
    0.0496    0.3909   -2.2284 C   0  0  0  0  0  0  0  0  0  0  0  0
    0.1007    1.6036   -2.9554 C   0  0  0  0  0  0  0  0  0  0  0  0
   -0.8168    1.8353   -4.0965 C   0  0  0  0  0  0  0  0  0  0  0  0
   -1.3237    3.1338   -4.3656 C   0  0  0  0  0  0  0  0  0  0  0  0
   -2.1948    3.3908   -5.4195 C   0  0  0  0  0  0  0  0  0  0  0  0
   -2.5762    2.3188   -6.2376 C   0  0  0  0  0  0  0  0  0  0  0  0
   -2.0747    1.0086   -6.0060 C   0  0  0  0  0  0  0  0  0  0  0  0
   -1.2051    0.7767   -4.9365 C   0  0  0  0  0  0  0  0  0  0  0  0
   -2.6317    0.1609   -7.0434 C   0  0  0  0  0  0  0  0  0  0  0  0
   -2.5227   -1.2046   -7.3427 C   0  0  0  0  0  0  0  0  0  0  0  0
   -3.2267   -1.7196   -8.4306 C   0  0  0  0  0  0  0  0  0  0  0  0
   -4.0427   -0.8836   -9.2158 C   0  0  0  0  0  0  0  0  0  0  0  0
   -4.1682    0.4788   -8.9402 C   0  0  0  0  0  0  0  0  0  0  0  0
   -3.4497    0.9938   -7.8543 C   0  0  0  0  0  0  0  0  0  0  0  0
   -3.4075    2.3006   -7.3550 N   0  0  0  0  0  0  0  0  0  0  0  0
   -4.1006    3.4205   -7.8940 C   0  0  0  0  0  0  0  0  0  0  0  0
   -5.0148    4.1300   -7.1009 C   0  0  0  0  0  0  0  0  0  0  0  0
   -5.6858    5.2354   -7.6293 C   0  0  0  0  0  0  0  0  0  0  0  0
   -5.4645    5.6285   -8.9527 C   0  0  0  0  0  0  0  0  0  0  0  0
   -4.5601    4.9155   -9.7458 C   0  0  0  0  0  0  0  0  0  0  0  0
   -3.8718    3.8199   -9.2192 C   0  0  0  0  0  0  0  0  0  0  0  0
    1.0397    2.5879   -2.5621 C   0  0  0  0  0  0  0  0  0  0  0  0
    1.9153    2.4033   -1.4928 C   0  0  0  0  0  0  0  0  0  0  0  0
    1.8409    1.1972   -0.7943 C   0  0  0  0  0  0  0  0  0  0  0  0
    4.9180    1.3734    0.2020 C   0  0  0  0  0  0  0  0  0  0  0  0
    6.0933    1.9479    0.6772 C   0  0  0  0  0  0  0  0  0  0  0  0
    6.0080    2.6429    1.9073 C   0  0  0  0  0  0  0  0  0  0  0  0
    4.7864    2.7305    2.5996 C   0  0  0  0  0  0  0  0  0  0  0  0
    4.9314    3.4804    3.7381 O   0  0  0  0  0  0  0  0  0  0  0  0
    6.2326    3.8752    3.8003 C   0  0  0  0  0  0  0  0  0  0  0  0
    6.7972    4.6535    4.8060 C   0  0  0  0  0  0  0  0  0  0  0  0
    8.1590    4.9503    4.6851 C   0  0  0  0  0  0  0  0  0  0  0  0
    8.9147    4.4782    3.5939 C   0  0  0  0  0  0  0  0  0  0  0  0
    8.3306    3.6986    2.5944 C   0  0  0  0  0  0  0  0  0  0  0  0
    6.9637    3.3886    2.6960 C   0  0  0  0  0  0  0  0  0  0  0  0
    2.3831    2.6227    4.2091 N   0  0  0  0  0  0  0  0  0  0  0  0
    0.1448    3.1830    7.0858 C   0  0  0  0  0  0  0  0  0  0  0  0
    0.2177    3.4876    8.4472 C   0  0  0  0  0  0  0  0  0  0  0  0
    1.5165    3.8961   10.1314 H   0  0  0  0  0  0  0  0  0  0  0  0
    3.6076    3.6578    8.7885 H   0  0  0  0  0  0  0  0  0  0  0  0
    3.4633    3.1182    6.3429 H   0  0  0  0  0  0  0  0  0  0  0  0
   -2.3503    1.9230    4.2391 H   0  0  0  0  0  0  0  0  0  0  0  0
   -4.6061    1.6384    3.1919 H   0  0  0  0  0  0  0  0  0  0  0  0
   -4.8338    1.6706    0.7061 H   0  0  0  0  0  0  0  0  0  0  0  0
   -2.8029    1.9815   -0.7149 H   0  0  0  0  0  0  0  0  0  0  0  0
   -0.5634    2.2428    0.3579 H   0  0  0  0  0  0  0  0  0  0  0  0
    3.4421   -0.9547    2.3610 H   0  0  0  0  0  0  0  0  0  0  0  0
    2.3780   -3.1556    2.7010 H   0  0  0  0  0  0  0  0  0  0  0  0
   -1.5431   -3.7669    0.3236 H   0  0  0  0  0  0  0  0  0  0  0  0
   -2.6114   -5.9543    0.6438 H   0  0  0  0  0  0  0  0  0  0  0  0
    2.0717   -5.1628    2.2795 H   0  0  0  0  0  0  0  0  0  0  0  0
    2.9156   -7.5141    3.4847 H   0  0  0  0  0  0  0  0  0  0  0  0
    3.0834   -9.8346    4.3754 H   0  0  0  0  0  0  0  0  0  0  0  0
    1.1915  -11.4219    4.1294 H   0  0  0  0  0  0  0  0  0  0  0  0
   -0.9208  -10.7323    3.0012 H   0  0  0  0  0  0  0  0  0  0  0  0
   -3.0479   -8.9859    3.6961 H   0  0  0  0  0  0  0  0  0  0  0  0
   -5.2297  -10.0572    3.1405 H   0  0  0  0  0  0  0  0  0  0  0  0
   -5.9097  -10.3420    0.7578 H   0  0  0  0  0  0  0  0  0  0  0  0
   -4.3930   -9.5717   -1.0665 H   0  0  0  0  0  0  0  0  0  0  0  0
   -2.1931   -8.5396   -0.5067 H   0  0  0  0  0  0  0  0  0  0  0  0
   -0.2854   -2.4532   -0.6657 H   0  0  0  0  0  0  0  0  0  0  0  0
   -0.6899   -0.3682   -2.4911 H   0  0  0  0  0  0  0  0  0  0  0  0
   -1.0453    3.9586   -3.7069 H   0  0  0  0  0  0  0  0  0  0  0  0
   -2.5719    4.3995   -5.5936 H   0  0  0  0  0  0  0  0  0  0  0  0
   -0.8014   -0.2254   -4.7759 H   0  0  0  0  0  0  0  0  0  0  0  0
   -1.8954   -1.8569   -6.7299 H   0  0  0  0  0  0  0  0  0  0  0  0
   -3.1486   -2.7813   -8.6760 H   0  0  0  0  0  0  0  0  0  0  0  0
   -4.5929   -1.3083  -10.0593 H   0  0  0  0  0  0  0  0  0  0  0  0
   -4.8087    1.1176   -9.5501 H   0  0  0  0  0  0  0  0  0  0  0  0
   -5.2005    3.8061   -6.0749 H   0  0  0  0  0  0  0  0  0  0  0  0
   -6.3947    5.7848   -7.0049 H   0  0  0  0  0  0  0  0  0  0  0  0
   -5.9958    6.4894   -9.3653 H   0  0  0  0  0  0  0  0  0  0  0  0
   -4.3778    5.2208  -10.7792 H   0  0  0  0  0  0  0  0  0  0  0  0
   -3.1480    3.2742   -9.8278 H   0  0  0  0  0  0  0  0  0  0  0  0
    1.1010    3.5172   -3.1313 H   0  0  0  0  0  0  0  0  0  0  0  0
    2.6363    3.1696   -1.2077 H   0  0  0  0  0  0  0  0  0  0  0  0
    4.9283    0.8090   -0.7338 H   0  0  0  0  0  0  0  0  0  0  0  0
    7.0295    1.8697    0.1244 H   0  0  0  0  0  0  0  0  0  0  0  0
    6.1956    5.0127    5.6428 H   0  0  0  0  0  0  0  0  0  0  0  0
    8.6441    5.5601    5.4514 H   0  0  0  0  0  0  0  0  0  0  0  0
    9.9766    4.7295    3.5310 H   0  0  0  0  0  0  0  0  0  0  0  0
    8.9248    3.3378    1.7511 H   0  0  0  0  0  0  0  0  0  0  0  0
   -0.8162    3.0505    6.5876 H   0  0  0  0  0  0  0  0  0  0  0  0
   -0.7018    3.5942    9.0299 H   0  0  0  0  0  0  0  0  0  0  0  0
  1  2  2  0
  1 82  1  0
  1 83  1  0
  2  3  1  0
  2 84  1  0
  3  4  2  0
  3 85  1  0
  4  5  1  0
  4 81  1  0
  5  6  2  0
  5 80  1  0
  6  7  1  0
  7  8  1  0
  7 14  2  0
  8  9  2  0
  8 13  1  0
  9 10  1  0
  9 86  1  0
 10 11  2  0
 10 87  1  0
 11 12  1  0
 11 88  1  0
 12 13  2  0
 12 89  1  0
 13 90  1  0
 14 15  1  0
 15 16  1  0
 15 80  2  0
 16 17  1  0
 16 72  2  0
 17 18  1  0
 17 69  2  0
 18 19  1  0
 18 68  1  0
 19 20  2  0
 19 43  1  0
 20 21  1  0
 20 91  1  0
 21 22  2  0
 21 92  1  0
 22 23  1  0
 22 42  1  0
 23 24  2  0
 23 28  1  0
 24 25  1  0
 24 93  1  0
 25 26  2  0
 25 94  1  0
 26 27  1  0
 26 35  1  0
 27 28  2  0
 27 29  1  0
 28 95  1  0
 29 30  2  0
 29 34  1  0
 30 31  1  0
 30 96  1  0
 31 32  2  0
 31 97  1  0
 32 33  1  0
 32 98  1  0
 33 34  2  0
 33 99  1  0
 34 35  1  0
 35 36  1  0
 36 37  2  0
 36 41  1  0
 37 38  1  0
 37100  1  0
 38 39  2  0
 38101  1  0
 39 40  1  0
 39102  1  0
 40 41  2  0
 40103  1  0
 41104  1  0
 42 43  2  0
 42105  1  0
 43 44  1  0
 44 45  1  0
 44 68  2  0
 45 46  2  0
 45106  1  0
 46 47  1  0
 46 66  1  0
 47 48  2  0
 47 52  1  0
 48 49  1  0
 48107  1  0
 49 50  2  0
 49108  1  0
 50 51  1  0
 50 59  1  0
 51 52  2  0
 51 53  1  0
 52109  1  0
 53 54  2  0
 53 58  1  0
 54 55  1  0
 54110  1  0
 55 56  2  0
 55111  1  0
 56 57  1  0
 56112  1  0
 57 58  2  0
 57113  1  0
 58 59  1  0
 59 60  1  0
 60 61  2  0
 60 65  1  0
 61 62  1  0
 61114  1  0
 62 63  2  0
 62115  1  0
 63 64  1  0
 63116  1  0
 64 65  2  0
 64117  1  0
 65118  1  0
 66 67  2  0
 66119  1  0
 67 68  1  0
 67120  1  0
 69 70  1  0
 69121  1  0
 70 71  2  0
 70122  1  0
 71 72  1  0
 71 79  1  0
 72 73  1  0
 73 74  1  0
 74 75  1  0
 74 79  2  0
 75 76  2  0
 75123  1  0
 76 77  1  0
 76124  1  0
 77 78  2  0
 77125  1  0
 78 79  1  0
 78126  1  0
 81 82  2  0
 81127  1  0
 82128  1  0
M  END

