
     RDKit          3D

 79 86  0  0  0  0  0  0  0  0999 V2000
    1.9014    2.0476    1.1615 C   0  0  0  0  0  0  0  0  0  0  0  0
    2.1159    1.2605    2.4589 C   0  0  0  0  0  0  0  0  0  0  0  0
    2.8864    0.0299    2.3010 N   0  0  0  0  0  0  0  0  0  0  0  0
    2.1986   -1.2093    1.9222 C   0  0  0  0  0  0  0  0  0  0  0  0
    0.7190   -1.2851    2.2855 C   0  0  0  0  0  0  0  0  0  0  0  0
    4.2648    0.0802    2.1955 C   0  0  0  0  0  0  0  0  0  0  0  0
    5.0000    1.2659    2.4822 C   0  0  0  0  0  0  0  0  0  0  0  0
    6.3838    1.2943    2.4148 C   0  0  0  0  0  0  0  0  0  0  0  0
    7.1262    0.1562    2.0441 C   0  0  0  0  0  0  0  0  0  0  0  0
    8.5898    0.1921    1.9751 C   0  0  0  0  0  0  0  0  0  0  0  0
    9.2218    1.3358    2.2999 N   0  0  0  0  0  0  0  0  0  0  0  0
   10.5438    1.2967    2.2185 C   0  0  0  0  0  0  0  0  0  0  0  0
   11.2579    2.4035    2.5022 O   0  0  0  0  0  0  0  0  0  0  0  0
   10.6735    3.5510    3.0052 C   0  0  0  0  0  0  0  0  0  0  0  0
   10.0165    3.5610    4.2391 C   0  0  0  0  0  0  0  0  0  0  0  0
    9.5276    4.7645    4.7414 C   0  0  0  0  0  0  0  0  0  0  0  0
    9.6891    5.9674    4.0292 C   0  0  0  0  0  0  0  0  0  0  0  0
    9.1851    7.2529    4.5334 C   0  0  0  0  0  0  0  0  0  0  0  0
    9.3113    8.3814    3.9059 N   0  0  0  0  0  0  0  0  0  0  0  0
    8.7505    9.4296    4.5994 C   0  0  0  0  0  0  0  0  0  0  0  0
    8.7287   10.7715    4.1776 C   0  0  0  0  0  0  0  0  0  0  0  0
    8.1235   11.7265    4.9881 C   0  0  0  0  0  0  0  0  0  0  0  0
    7.5370   11.3659    6.2170 C   0  0  0  0  0  0  0  0  0  0  0  0
    7.5460   10.0423    6.6565 C   0  0  0  0  0  0  0  0  0  0  0  0
    8.1544    9.0805    5.8418 C   0  0  0  0  0  0  0  0  0  0  0  0
    8.3326    7.3620    6.0993 S   0  0  0  0  0  0  0  0  0  0  0  0
   10.3617    5.9339    2.7929 C   0  0  0  0  0  0  0  0  0  0  0  0
   10.8512    4.7344    2.2838 C   0  0  0  0  0  0  0  0  0  0  0  0
   11.2858    0.2551    1.8562 N   0  0  0  0  0  0  0  0  0  0  0  0
   10.5640   -0.8199    1.5566 C   0  0  0  0  0  0  0  0  0  0  0  0
   11.2987   -1.8933    1.2056 O   0  0  0  0  0  0  0  0  0  0  0  0
   10.7131   -3.0628    0.7553 C   0  0  0  0  0  0  0  0  0  0  0  0
   10.0168   -3.1068   -0.4557 C   0  0  0  0  0  0  0  0  0  0  0  0
    9.5230   -4.3253   -0.9150 C   0  0  0  0  0  0  0  0  0  0  0  0
    9.7187   -5.5097   -0.1805 C   0  0  0  0  0  0  0  0  0  0  0  0
    9.2097   -6.8107   -0.6378 C   0  0  0  0  0  0  0  0  0  0  0  0
    9.3487   -7.9196    0.0211 N   0  0  0  0  0  0  0  0  0  0  0  0
    8.7785   -8.9891   -0.6309 C   0  0  0  0  0  0  0  0  0  0  0  0
    8.7650  -10.3174   -0.1677 C   0  0  0  0  0  0  0  0  0  0  0  0
    8.1474  -11.2972   -0.9383 C   0  0  0  0  0  0  0  0  0  0  0  0
    7.5406  -10.9749   -2.1679 C   0  0  0  0  0  0  0  0  0  0  0  0
    7.5409   -9.6654   -2.6481 C   0  0  0  0  0  0  0  0  0  0  0  0
    8.1615   -8.6787   -1.8734 C   0  0  0  0  0  0  0  0  0  0  0  0
    8.3331   -6.9687   -2.1861 S   0  0  0  0  0  0  0  0  0  0  0  0
   10.4298   -5.4418    1.0327 C   0  0  0  0  0  0  0  0  0  0  0  0
   10.9249   -4.2267    1.4981 C   0  0  0  0  0  0  0  0  0  0  0  0
    9.2431   -0.9208    1.5916 N   0  0  0  0  0  0  0  0  0  0  0  0
    6.4102   -1.0145    1.7350 C   0  0  0  0  0  0  0  0  0  0  0  0
    5.0248   -1.0568    1.8007 C   0  0  0  0  0  0  0  0  0  0  0  0
    1.3198    2.9631    1.3573 H   0  0  0  0  0  0  0  0  0  0  0  0
    1.3490    1.4496    0.4188 H   0  0  0  0  0  0  0  0  0  0  0  0
    2.8599    2.3436    0.7081 H   0  0  0  0  0  0  0  0  0  0  0  0
    1.1445    1.0056    2.9011 H   0  0  0  0  0  0  0  0  0  0  0  0
    2.6089    1.8945    3.2101 H   0  0  0  0  0  0  0  0  0  0  0  0
    2.7072   -2.0447    2.4291 H   0  0  0  0  0  0  0  0  0  0  0  0
    2.3146   -1.3979    0.8354 H   0  0  0  0  0  0  0  0  0  0  0  0
    0.5534   -1.1397    3.3645 H   0  0  0  0  0  0  0  0  0  0  0  0
    0.3483   -2.2886    2.0257 H   0  0  0  0  0  0  0  0  0  0  0  0
    0.1008   -0.5588    1.7366 H   0  0  0  0  0  0  0  0  0  0  0  0
    4.4844    2.1816    2.7657 H   0  0  0  0  0  0  0  0  0  0  0  0
    6.9191    2.2162    2.6477 H   0  0  0  0  0  0  0  0  0  0  0  0
    9.8906    2.6335    4.7984 H   0  0  0  0  0  0  0  0  0  0  0  0
    9.0157    4.7623    5.7070 H   0  0  0  0  0  0  0  0  0  0  0  0
    9.1878   11.0351    3.2229 H   0  0  0  0  0  0  0  0  0  0  0  0
    8.1020   12.7714    4.6693 H   0  0  0  0  0  0  0  0  0  0  0  0
    7.0678   12.1335    6.8373 H   0  0  0  0  0  0  0  0  0  0  0  0
    7.0907    9.7676    7.6104 H   0  0  0  0  0  0  0  0  0  0  0  0
   10.4901    6.8679    2.2441 H   0  0  0  0  0  0  0  0  0  0  0  0
   11.3786    4.6978    1.3288 H   0  0  0  0  0  0  0  0  0  0  0  0
    9.8656   -2.1923   -1.0306 H   0  0  0  0  0  0  0  0  0  0  0  0
    8.9788   -4.3499   -1.8624 H   0  0  0  0  0  0  0  0  0  0  0  0
    9.2399  -10.5512    0.7870 H   0  0  0  0  0  0  0  0  0  0  0  0
    8.1322  -12.3318   -0.5871 H   0  0  0  0  0  0  0  0  0  0  0  0
    7.0620  -11.7614   -2.7566 H   0  0  0  0  0  0  0  0  0  0  0  0
    7.0696   -9.4204   -3.6023 H   0  0  0  0  0  0  0  0  0  0  0  0
   10.5836   -6.3617    1.5986 H   0  0  0  0  0  0  0  0  0  0  0  0
   11.4822   -4.1639    2.4346 H   0  0  0  0  0  0  0  0  0  0  0  0
    6.9657   -1.9039    1.4334 H   0  0  0  0  0  0  0  0  0  0  0  0
    4.5311   -1.9892    1.5358 H   0  0  0  0  0  0  0  0  0  0  0  0
  1  2  1  0
  1 50  1  0
  1 51  1  0
  1 52  1  0
  2  3  1  0
  2 53  1  0
  2 54  1  0
  3  4  1  0
  3  6  1  0
  4  5  1  0
  4 55  1  0
  4 56  1  0
  5 57  1  0
  5 58  1  0
  5 59  1  0
  6  7  2  0
  6 49  1  0
  7  8  1  0
  7 60  1  0
  8  9  2  0
  8 61  1  0
  9 10  1  0
  9 48  1  0
 10 11  2  0
 10 47  1  0
 11 12  1  0
 12 13  1  0
 12 29  2  0
 13 14  1  0
 14 15  2  0
 14 28  1  0
 15 16  1  0
 15 62  1  0
 16 17  2  0
 16 63  1  0
 17 18  1  0
 17 27  1  0
 18 19  2  0
 18 26  1  0
 19 20  1  0
 20 21  2  0
 20 25  1  0
 21 22  1  0
 21 64  1  0
 22 23  2  0
 22 65  1  0
 23 24  1  0
 23 66  1  0
 24 25  2  0
 24 67  1  0
 25 26  1  0
 27 28  2  0
 27 68  1  0
 28 69  1  0
 29 30  1  0
 30 31  1  0
 30 47  2  0
 31 32  1  0
 32 33  2  0
 32 46  1  0
 33 34  1  0
 33 70  1  0
 34 35  2  0
 34 71  1  0
 35 36  1  0
 35 45  1  0
 36 37  2  0
 36 44  1  0
 37 38  1  0
 38 39  2  0
 38 43  1  0
 39 40  1  0
 39 72  1  0
 40 41  2  0
 40 73  1  0
 41 42  1  0
 41 74  1  0
 42 43  2  0
 42 75  1  0
 43 44  1  0
 45 46  2  0
 45 76  1  0
 46 77  1  0
 48 49  2  0
 48 78  1  0
 49 79  1  0
M  END

