
     RDKit          3D

 32 34  0  0  0  0  0  0  0  0999 V2000
   -1.4256   -0.1347    0.4763 C   0  0  0  0  0  0  0  0  0  0  0  0
   -0.8250    1.1294    0.3340 C   0  0  0  0  0  0  0  0  0  0  0  0
    0.5221    1.2457    0.0304 C   0  0  0  0  0  0  0  0  0  0  0  0
    1.3565    0.0903   -0.1523 C   0  0  0  0  0  0  0  0  0  0  0  0
    2.7583    0.2033   -0.4692 C   0  0  0  0  0  0  0  0  0  0  0  0
    3.4187    1.4777   -0.6052 C   0  0  0  0  0  0  0  0  0  0  0  0
    4.7537    1.5851   -0.9077 C   0  0  0  0  0  0  0  0  0  0  0  0
    5.5941    0.4314   -1.1121 C   0  0  0  0  0  0  0  0  0  0  0  0
    6.9958    0.5441   -1.4295 C   0  0  0  0  0  0  0  0  0  0  0  0
    7.6409    1.8187   -1.5824 C   0  0  0  0  0  0  0  0  0  0  0  0
    8.9889    1.9196   -1.8880 C   0  0  0  0  0  0  0  0  0  0  0  0
    9.7777    0.7674   -2.0597 C   0  0  0  0  0  0  0  0  0  0  0  0
    9.1765   -0.4964   -1.9166 C   0  0  0  0  0  0  0  0  0  0  0  0
    7.8296   -0.6118   -1.6118 C   0  0  0  0  0  0  0  0  0  0  0  0
    4.9338   -0.8430   -0.9757 C   0  0  0  0  0  0  0  0  0  0  0  0
    3.5988   -0.9504   -0.6733 C   0  0  0  0  0  0  0  0  0  0  0  0
    0.7121   -1.1846    0.0006 C   0  0  0  0  0  0  0  0  0  0  0  0
   -0.6360   -1.2864    0.3052 C   0  0  0  0  0  0  0  0  0  0  0  0
   -2.4881   -0.2206    0.7163 H   0  0  0  0  0  0  0  0  0  0  0  0
   -1.4254    2.0340    0.4637 H   0  0  0  0  0  0  0  0  0  0  0  0
    0.9468    2.2444   -0.0723 H   0  0  0  0  0  0  0  0  0  0  0  0
    2.8512    2.3972   -0.4624 H   0  0  0  0  0  0  0  0  0  0  0  0
    5.1802    2.5847   -0.9894 H   0  0  0  0  0  0  0  0  0  0  0  0
    7.0659    2.7368   -1.4607 H   0  0  0  0  0  0  0  0  0  0  0  0
    9.4414    2.9091   -1.9971 H   0  0  0  0  0  0  0  0  0  0  0  0
   10.8400    0.8527   -2.3007 H   0  0  0  0  0  0  0  0  0  0  0  0
    9.7764   -1.4013   -2.0461 H   0  0  0  0  0  0  0  0  0  0  0  0
    7.4047   -1.6102   -1.5068 H   0  0  0  0  0  0  0  0  0  0  0  0
    5.5012   -1.7625   -1.1187 H   0  0  0  0  0  0  0  0  0  0  0  0
    3.1723   -1.9500   -0.5902 H   0  0  0  0  0  0  0  0  0  0  0  0
    1.2877   -2.1024   -0.1215 H   0  0  0  0  0  0  0  0  0  0  0  0
   -1.0880   -2.2761    0.4140 H   0  0  0  0  0  0  0  0  0  0  0  0
  1  2  2  0
  1 18  1  0
  1 19  1  0
  2  3  1  0
  2 20  1  0
  3  4  2  0
  3 21  1  0
  4  5  1  0
  4 17  1  0
  5  6  2  0
  5 16  1  0
  6  7  1  0
  6 22  1  0
  7  8  2  0
  7 23  1  0
  8  9  1  0
  8 15  1  0
  9 10  2  0
  9 14  1  0
 10 11  1  0
 10 24  1  0
 11 12  2  0
 11 25  1  0
 12 13  1  0
 12 26  1  0
 13 14  2  0
 13 27  1  0
 14 28  1  0
 15 16  2  0
 15 29  1  0
 16 30  1  0
 17 18  2  0
 17 31  1  0
 18 32  1  0
M  END

