
     RDKit          3D

154165  0  0  0  0  0  0  0  0999 V2000
   -1.6407    5.6109    1.8558 C   0  0  0  0  0  0  0  0  0  0  0  0
   -0.5479    5.7970    0.8022 C   0  0  0  0  0  0  0  0  0  0  0  0
    0.8708    5.6271    1.3551 C   0  0  0  0  0  0  0  0  0  0  0  0
    1.9721    5.8173    0.3081 C   0  0  0  0  0  0  0  0  0  0  0  0
    3.3872    5.6435    0.8657 C   0  0  0  0  0  0  0  0  0  0  0  0
    4.4869    5.8468   -0.1943 C   0  0  0  0  0  0  0  0  0  0  0  0
    5.8869    5.6614    0.3142 C   0  0  0  0  0  0  0  0  0  0  0  0
    6.7670    4.6336    0.0530 C   0  0  0  0  0  0  0  0  0  0  0  0
    8.0094    4.7536    0.7303 C   0  0  0  0  0  0  0  0  0  0  0  0
    8.0964    5.8844    1.5283 C   0  0  0  0  0  0  0  0  0  0  0  0
    9.1873    6.3332    2.3577 C   0  0  0  0  0  0  0  0  0  0  0  0
    9.2149    7.3767    3.2764 C   0  0  0  0  0  0  0  0  0  0  0  0
   10.4593    7.5378    3.9198 C   0  0  0  0  0  0  0  0  0  0  0  0
   11.4284    6.6162    3.5248 C   0  0  0  0  0  0  0  0  0  0  0  0
   12.7855    6.4018    4.0066 C   0  0  0  0  0  0  0  0  0  0  0  0
   13.2517    5.0883    4.1399 C   0  0  0  0  0  0  0  0  0  0  0  0
   14.4856    4.7523    4.7119 C   0  0  0  0  0  0  0  0  0  0  0  0
   14.8013    3.3478    4.9233 C   0  0  0  0  0  0  0  0  0  0  0  0
   15.4556    2.7138    5.9793 C   0  0  0  0  0  0  0  0  0  0  0  0
   15.4925    1.3085    5.8735 C   0  0  0  0  0  0  0  0  0  0  0  0
   14.8789    0.8135    4.7276 C   0  0  0  0  0  0  0  0  0  0  0  0
   14.7323   -0.5544    4.2965 C   0  0  0  0  0  0  0  0  0  0  0  0
   14.0099   -1.0640    3.2278 C   0  0  0  0  0  0  0  0  0  0  0  0
   14.0989   -2.4760    3.1069 C   0  0  0  0  0  0  0  0  0  0  0  0
   14.8848   -3.0707    4.0702 C   0  0  0  0  0  0  0  0  0  0  0  0
   15.1728   -4.5298    4.2736 C   0  0  0  0  0  0  0  0  0  0  0  0
   14.4532   -5.1629    5.4803 C   0  0  0  0  0  0  0  0  0  0  0  0
   14.7538   -6.6549    5.6464 C   0  0  0  0  0  0  0  0  0  0  0  0
   14.0399   -7.2979    6.8388 C   0  0  0  0  0  0  0  0  0  0  0  0
   14.3375   -8.7912    7.0085 C   0  0  0  0  0  0  0  0  0  0  0  0
   13.6189   -9.4265    8.1997 C   0  0  0  0  0  0  0  0  0  0  0  0
   15.5358   -1.8624    5.1498 S   0  0  0  0  0  0  0  0  0  0  0  0
   14.2538    2.1379    3.7671 S   0  0  0  0  0  0  0  0  0  0  0  0
   15.3723    5.8248    5.1216 C   0  0  0  0  0  0  0  0  0  0  0  0
   16.6828    5.5877    5.5916 C   0  0  0  0  0  0  0  0  0  0  0  0
   17.4939    6.6151    6.0413 C   0  0  0  0  0  0  0  0  0  0  0  0
   17.0727    7.9626    6.0189 C   0  0  0  0  0  0  0  0  0  0  0  0
   17.8829    9.0466    6.5432 C   0  0  0  0  0  0  0  0  0  0  0  0
   19.0880    8.8658    7.3378 C   0  0  0  0  0  0  0  0  0  0  0  0
   20.1767    9.7357    7.4256 C   0  0  0  0  0  0  0  0  0  0  0  0
   21.1503    9.3576    8.3687 C   0  0  0  0  0  0  0  0  0  0  0  0
   20.8471    8.1814    9.0474 C   0  0  0  0  0  0  0  0  0  0  0  0
   21.6133    7.4927   10.0553 C   0  0  0  0  0  0  0  0  0  0  0  0
   21.3684    6.2689   10.6626 C   0  0  0  0  0  0  0  0  0  0  0  0
   22.3515    5.9048   11.6192 C   0  0  0  0  0  0  0  0  0  0  0  0
   23.3622    6.8318   11.7648 C   0  0  0  0  0  0  0  0  0  0  0  0
   24.5680    6.7577   12.6609 C   0  0  0  0  0  0  0  0  0  0  0  0
   25.8054    6.0569   12.0562 C   0  0  0  0  0  0  0  0  0  0  0  0
   26.4885    6.8164   10.9161 C   0  0  0  0  0  0  0  0  0  0  0  0
   27.7183    6.0981   10.3522 C   0  0  0  0  0  0  0  0  0  0  0  0
   28.4069    6.8567    9.2132 C   0  0  0  0  0  0  0  0  0  0  0  0
   29.6291    6.1334    8.6460 C   0  0  0  0  0  0  0  0  0  0  0  0
   23.0883    8.1900   10.7035 S   0  0  0  0  0  0  0  0  0  0  0  0
   19.3122    7.5487    8.4905 S   0  0  0  0  0  0  0  0  0  0  0  0
   17.4927   10.3608    6.2505 C   0  0  0  0  0  0  0  0  0  0  0  0
   16.3454   10.6942    5.5233 C   0  0  0  0  0  0  0  0  0  0  0  0
   16.1023   12.0906    5.1906 C   0  0  0  0  0  0  0  0  0  0  0  0
   15.5533   12.6626    4.0439 C   0  0  0  0  0  0  0  0  0  0  0  0
   15.5643   14.0732    4.0408 C   0  0  0  0  0  0  0  0  0  0  0  0
   16.1106   14.6341    5.1892 C   0  0  0  0  0  0  0  0  0  0  0  0
   16.2804   16.0260    5.5276 C   0  0  0  0  0  0  0  0  0  0  0  0
   16.9766   16.5925    6.5842 C   0  0  0  0  0  0  0  0  0  0  0  0
   16.9250   18.0119    6.5994 C   0  0  0  0  0  0  0  0  0  0  0  0
   16.1933   18.5553    5.5661 C   0  0  0  0  0  0  0  0  0  0  0  0
   15.9457   20.0026    5.2540 C   0  0  0  0  0  0  0  0  0  0  0  0
   16.6539   20.5184    3.9867 C   0  0  0  0  0  0  0  0  0  0  0  0
   16.3886   22.0001    3.7086 C   0  0  0  0  0  0  0  0  0  0  0  0
   17.0781   22.5234    2.4452 C   0  0  0  0  0  0  0  0  0  0  0  0
   16.8126   24.0053    2.1618 C   0  0  0  0  0  0  0  0  0  0  0  0
   17.5008   24.5195    0.8965 C   0  0  0  0  0  0  0  0  0  0  0  0
   15.5470   17.2887    4.5519 S   0  0  0  0  0  0  0  0  0  0  0  0
   16.6085   13.3682    6.2924 S   0  0  0  0  0  0  0  0  0  0  0  0
   15.4349    9.6278    5.1475 C   0  0  0  0  0  0  0  0  0  0  0  0
   14.1686    9.8753    4.5752 C   0  0  0  0  0  0  0  0  0  0  0  0
   13.3190    8.8468    4.2067 C   0  0  0  0  0  0  0  0  0  0  0  0
   13.6588    7.4906    4.4042 C   0  0  0  0  0  0  0  0  0  0  0  0
   14.9416    7.1901    4.9817 C   0  0  0  0  0  0  0  0  0  0  0  0
   15.8154    8.2627    5.3877 C   0  0  0  0  0  0  0  0  0  0  0  0
   10.7529    5.5511    2.2966 S   0  0  0  0  0  0  0  0  0  0  0  0
    6.6069    6.8081    1.4170 S   0  0  0  0  0  0  0  0  0  0  0  0
   -2.6462    5.7395    1.4241 H   0  0  0  0  0  0  0  0  0  0  0  0
   -1.5350    6.3407    2.6760 H   0  0  0  0  0  0  0  0  0  0  0  0
   -1.5977    4.6043    2.3046 H   0  0  0  0  0  0  0  0  0  0  0  0
   -0.6416    6.7996    0.3462 H   0  0  0  0  0  0  0  0  0  0  0  0
   -0.7040    5.0781   -0.0228 H   0  0  0  0  0  0  0  0  0  0  0  0
    0.9674    4.6229    1.8083 H   0  0  0  0  0  0  0  0  0  0  0  0
    1.0273    6.3439    2.1828 H   0  0  0  0  0  0  0  0  0  0  0  0
    1.8778    6.8228   -0.1430 H   0  0  0  0  0  0  0  0  0  0  0  0
    1.8155    5.1022   -0.5211 H   0  0  0  0  0  0  0  0  0  0  0  0
    3.4958    4.6367    1.3059 H   0  0  0  0  0  0  0  0  0  0  0  0
    3.5480    6.3543    1.6957 H   0  0  0  0  0  0  0  0  0  0  0  0
    4.3766    6.8542   -0.6355 H   0  0  0  0  0  0  0  0  0  0  0  0
    4.3343    5.1330   -1.0214 H   0  0  0  0  0  0  0  0  0  0  0  0
    6.5202    3.8066   -0.6158 H   0  0  0  0  0  0  0  0  0  0  0  0
    8.8196    4.0274    0.6462 H   0  0  0  0  0  0  0  0  0  0  0  0
    8.3407    7.9929    3.4939 H   0  0  0  0  0  0  0  0  0  0  0  0
   10.6302    8.2694    4.7087 H   0  0  0  0  0  0  0  0  0  0  0  0
   12.5701    4.2755    3.8812 H   0  0  0  0  0  0  0  0  0  0  0  0
   15.8412    3.2555    6.8422 H   0  0  0  0  0  0  0  0  0  0  0  0
   15.9382    0.6597    6.6296 H   0  0  0  0  0  0  0  0  0  0  0  0
   13.4272   -0.4326    2.5550 H   0  0  0  0  0  0  0  0  0  0  0  0
   13.5952   -3.0491    2.3259 H   0  0  0  0  0  0  0  0  0  0  0  0
   16.2611   -4.6878    4.3818 H   0  0  0  0  0  0  0  0  0  0  0  0
   14.8774   -5.0610    3.3529 H   0  0  0  0  0  0  0  0  0  0  0  0
   13.3654   -5.0098    5.3684 H   0  0  0  0  0  0  0  0  0  0  0  0
   14.7410   -4.6218    6.3992 H   0  0  0  0  0  0  0  0  0  0  0  0
   15.8454   -6.7981    5.7529 H   0  0  0  0  0  0  0  0  0  0  0  0
   14.4717   -7.1896    4.7201 H   0  0  0  0  0  0  0  0  0  0  0  0
   12.9485   -7.1540    6.7314 H   0  0  0  0  0  0  0  0  0  0  0  0
   14.3214   -6.7628    7.7649 H   0  0  0  0  0  0  0  0  0  0  0  0
   15.4283   -8.9335    7.1169 H   0  0  0  0  0  0  0  0  0  0  0  0
   14.0577   -9.3241    6.0813 H   0  0  0  0  0  0  0  0  0  0  0  0
   13.9066   -8.9407    9.1472 H   0  0  0  0  0  0  0  0  0  0  0  0
   13.8556  -10.4987    8.2911 H   0  0  0  0  0  0  0  0  0  0  0  0
   12.5240   -9.3348    8.1031 H   0  0  0  0  0  0  0  0  0  0  0  0
   17.0801    4.5744    5.5826 H   0  0  0  0  0  0  0  0  0  0  0  0
   18.4959    6.3690    6.3900 H   0  0  0  0  0  0  0  0  0  0  0  0
   20.2758   10.6143    6.7876 H   0  0  0  0  0  0  0  0  0  0  0  0
   22.0713    9.9171    8.5412 H   0  0  0  0  0  0  0  0  0  0  0  0
   20.5005    5.6531   10.4206 H   0  0  0  0  0  0  0  0  0  0  0  0
   22.3172    4.9786   12.1969 H   0  0  0  0  0  0  0  0  0  0  0  0
   24.2692    6.2129   13.5718 H   0  0  0  0  0  0  0  0  0  0  0  0
   24.8528    7.7719   12.9902 H   0  0  0  0  0  0  0  0  0  0  0  0
   25.5109    5.0510   11.7080 H   0  0  0  0  0  0  0  0  0  0  0  0
   26.5348    5.8978   12.8710 H   0  0  0  0  0  0  0  0  0  0  0  0
   26.7853    7.8199   11.2755 H   0  0  0  0  0  0  0  0  0  0  0  0
   25.7659    6.9916   10.1000 H   0  0  0  0  0  0  0  0  0  0  0  0
   27.4212    5.0948    9.9935 H   0  0  0  0  0  0  0  0  0  0  0  0
   28.4474    5.9208   11.1652 H   0  0  0  0  0  0  0  0  0  0  0  0
   28.7049    7.8585    9.5732 H   0  0  0  0  0  0  0  0  0  0  0  0
   27.6753    7.0358    8.4045 H   0  0  0  0  0  0  0  0  0  0  0  0
   30.3965    5.9720    9.4219 H   0  0  0  0  0  0  0  0  0  0  0  0
   30.0973    6.7071    7.8303 H   0  0  0  0  0  0  0  0  0  0  0  0
   29.3574    5.1434    8.2424 H   0  0  0  0  0  0  0  0  0  0  0  0
   18.1276   11.1742    6.6041 H   0  0  0  0  0  0  0  0  0  0  0  0
   15.2132   12.0696    3.1956 H   0  0  0  0  0  0  0  0  0  0  0  0
   15.2033   14.6761    3.2057 H   0  0  0  0  0  0  0  0  0  0  0  0
   17.5172   15.9967    7.3216 H   0  0  0  0  0  0  0  0  0  0  0  0
   17.4164   18.6269    7.3560 H   0  0  0  0  0  0  0  0  0  0  0  0
   16.2767   20.5933    6.1249 H   0  0  0  0  0  0  0  0  0  0  0  0
   14.8599   20.1856    5.1561 H   0  0  0  0  0  0  0  0  0  0  0  0
   16.3301   19.9155    3.1196 H   0  0  0  0  0  0  0  0  0  0  0  0
   17.7397   20.3436    4.0864 H   0  0  0  0  0  0  0  0  0  0  0  0
   16.7155   22.6000    4.5785 H   0  0  0  0  0  0  0  0  0  0  0  0
   15.2982   22.1659    3.6248 H   0  0  0  0  0  0  0  0  0  0  0  0
   16.7514   21.9222    1.5762 H   0  0  0  0  0  0  0  0  0  0  0  0
   18.1685   22.3582    2.5289 H   0  0  0  0  0  0  0  0  0  0  0  0
   17.1412   24.6051    3.0303 H   0  0  0  0  0  0  0  0  0  0  0  0
   15.7224   24.1692    2.0813 H   0  0  0  0  0  0  0  0  0  0  0  0
   18.5961   24.4062    0.9610 H   0  0  0  0  0  0  0  0  0  0  0  0
   17.2871   25.5865    0.7241 H   0  0  0  0  0  0  0  0  0  0  0  0
   17.1656   23.9648    0.0039 H   0  0  0  0  0  0  0  0  0  0  0  0
   13.8374   10.9021    4.4305 H   0  0  0  0  0  0  0  0  0  0  0  0
   12.3757    9.0979    3.7257 H   0  0  0  0  0  0  0  0  0  0  0  0
  1  2  1  0
  1 81  1  0
  1 82  1  0
  1 83  1  0
  2  3  1  0
  2 84  1  0
  2 85  1  0
  3  4  1  0
  3 86  1  0
  3 87  1  0
  4  5  1  0
  4 88  1  0
  4 89  1  0
  5  6  1  0
  5 90  1  0
  5 91  1  0
  6  7  1  0
  6 92  1  0
  6 93  1  0
  7  8  2  0
  7 80  1  0
  8  9  1  0
  8 94  1  0
  9 10  2  0
  9 95  1  0
 10 11  1  0
 10 80  1  0
 11 12  2  0
 11 79  1  0
 12 13  1  0
 12 96  1  0
 13 14  2  0
 13 97  1  0
 14 15  1  0
 14 79  1  0
 15 16  2  0
 15 76  1  0
 16 17  1  0
 16 98  1  0
 17 18  1  0
 17 34  2  0
 18 19  2  0
 18 33  1  0
 19 20  1  0
 19 99  1  0
 20 21  2  0
 20100  1  0
 21 22  1  0
 21 33  1  0
 22 23  2  0
 22 32  1  0
 23 24  1  0
 23101  1  0
 24 25  2  0
 24102  1  0
 25 26  1  0
 25 32  1  0
 26 27  1  0
 26103  1  0
 26104  1  0
 27 28  1  0
 27105  1  0
 27106  1  0
 28 29  1  0
 28107  1  0
 28108  1  0
 29 30  1  0
 29109  1  0
 29110  1  0
 30 31  1  0
 30111  1  0
 30112  1  0
 31113  1  0
 31114  1  0
 31115  1  0
 34 35  1  0
 34 77  1  0
 35 36  2  0
 35116  1  0
 36 37  1  0
 36117  1  0
 37 38  2  0
 37 78  1  0
 38 39  1  0
 38 55  1  0
 39 40  2  0
 39 54  1  0
 40 41  1  0
 40118  1  0
 41 42  2  0
 41119  1  0
 42 43  1  0
 42 54  1  0
 43 44  2  0
 43 53  1  0
 44 45  1  0
 44120  1  0
 45 46  2  0
 45121  1  0
 46 47  1  0
 46 53  1  0
 47 48  1  0
 47122  1  0
 47123  1  0
 48 49  1  0
 48124  1  0
 48125  1  0
 49 50  1  0
 49126  1  0
 49127  1  0
 50 51  1  0
 50128  1  0
 50129  1  0
 51 52  1  0
 51130  1  0
 51131  1  0
 52132  1  0
 52133  1  0
 52134  1  0
 55 56  2  0
 55135  1  0
 56 57  1  0
 56 73  1  0
 57 58  2  0
 57 72  1  0
 58 59  1  0
 58136  1  0
 59 60  2  0
 59137  1  0
 60 61  1  0
 60 72  1  0
 61 62  2  0
 61 71  1  0
 62 63  1  0
 62138  1  0
 63 64  2  0
 63139  1  0
 64 65  1  0
 64 71  1  0
 65 66  1  0
 65140  1  0
 65141  1  0
 66 67  1  0
 66142  1  0
 66143  1  0
 67 68  1  0
 67144  1  0
 67145  1  0
 68 69  1  0
 68146  1  0
 68147  1  0
 69 70  1  0
 69148  1  0
 69149  1  0
 70150  1  0
 70151  1  0
 70152  1  0
 73 74  2  0
 73 78  1  0
 74 75  1  0
 74153  1  0
 75 76  2  0
 75154  1  0
 76 77  1  0
 77 78  2  0
M  END

