
     RDKit          3D

 32 35  0  0  0  0  0  0  0  0999 V2000
    0.9256    0.1862   -0.4832 O   0  0  0  0  0  0  0  0  0  0  0  0
    2.2089    0.1403   -0.0746 C   0  0  0  0  0  0  0  0  0  0  0  0
    2.9285    1.3010    0.3223 C   0  0  0  0  0  0  0  0  0  0  0  0
    2.3356    2.6388    0.3218 C   0  0  0  0  0  0  0  0  0  0  0  0
    2.8130    3.8835    0.6600 C   0  0  0  0  0  0  0  0  0  0  0  0
    1.7476    4.8153    0.4449 C   0  0  0  0  0  0  0  0  0  0  0  0
    0.6855    4.0928   -0.0095 C   0  0  0  0  0  0  0  0  0  0  0  0
    1.0296    2.7742   -0.0882 O   0  0  0  0  0  0  0  0  0  0  0  0
    4.2667    1.1510    0.7322 C   0  0  0  0  0  0  0  0  0  0  0  0
    4.8839   -0.0964    0.7543 C   0  0  0  0  0  0  0  0  0  0  0  0
    4.1707   -1.2268    0.3642 C   0  0  0  0  0  0  0  0  0  0  0  0
    2.8318   -1.1321   -0.0541 C   0  0  0  0  0  0  0  0  0  0  0  0
    2.1467   -2.3758   -0.4527 C   0  0  0  0  0  0  0  0  0  0  0  0
    2.7506   -3.5295   -0.4235 N   0  0  0  0  0  0  0  0  0  0  0  0
    1.9399   -4.5582   -0.8351 C   0  0  0  0  0  0  0  0  0  0  0  0
    2.3118   -5.9144   -0.9119 C   0  0  0  0  0  0  0  0  0  0  0  0
    1.3789   -6.8470   -1.3505 C   0  0  0  0  0  0  0  0  0  0  0  0
    0.0758   -6.4510   -1.7154 C   0  0  0  0  0  0  0  0  0  0  0  0
   -0.3135   -5.1145   -1.6469 C   0  0  0  0  0  0  0  0  0  0  0  0
    0.6248   -4.1719   -1.2055 C   0  0  0  0  0  0  0  0  0  0  0  0
    0.4528   -2.4463   -1.0114 S   0  0  0  0  0  0  0  0  0  0  0  0
    0.5937    1.1001   -0.4638 H   0  0  0  0  0  0  0  0  0  0  0  0
    3.8109    4.1145    1.0227 H   0  0  0  0  0  0  0  0  0  0  0  0
    1.7731    5.8903    0.6097 H   0  0  0  0  0  0  0  0  0  0  0  0
   -0.3289    4.3419   -0.3070 H   0  0  0  0  0  0  0  0  0  0  0  0
    4.8289    2.0352    1.0382 H   0  0  0  0  0  0  0  0  0  0  0  0
    5.9234   -0.1866    1.0763 H   0  0  0  0  0  0  0  0  0  0  0  0
    4.6266   -2.2173    0.3704 H   0  0  0  0  0  0  0  0  0  0  0  0
    3.3248   -6.2047   -0.6259 H   0  0  0  0  0  0  0  0  0  0  0  0
    1.6565   -7.9021   -1.4141 H   0  0  0  0  0  0  0  0  0  0  0  0
   -0.6404   -7.2024   -2.0572 H   0  0  0  0  0  0  0  0  0  0  0  0
   -1.3242   -4.8129   -1.9312 H   0  0  0  0  0  0  0  0  0  0  0  0
  1  2  1  0
  1 22  1  0
  2  3  2  0
  2 12  1  0
  3  4  1  0
  3  9  1  0
  4  5  2  0
  4  8  1  0
  5  6  1  0
  5 23  1  0
  6  7  2  0
  6 24  1  0
  7  8  1  0
  7 25  1  0
  9 10  2  0
  9 26  1  0
 10 11  1  0
 10 27  1  0
 11 12  2  0
 11 28  1  0
 12 13  1  0
 13 14  2  0
 13 21  1  0
 14 15  1  0
 15 16  2  0
 15 20  1  0
 16 17  1  0
 16 29  1  0
 17 18  2  0
 17 30  1  0
 18 19  1  0
 18 31  1  0
 19 20  2  0
 19 32  1  0
 20 21  1  0
M  END

