
     RDKit          3D

 51 55  0  0  0  0  0  0  0  0999 V2000
    0.2982    1.8717   -0.1624 C   0  0  0  0  0  0  0  0  0  0  0  0
    1.7609    2.1985   -0.4653 C   0  0  0  0  0  0  0  0  0  0  0  0
    2.6541    0.9541   -0.3705 C   0  0  0  0  0  0  0  0  0  0  0  0
    4.0878    1.2048   -0.6276 N   0  0  0  0  0  0  0  0  0  0  0  0
    4.5458    1.1232   -1.9349 C   0  0  0  0  0  0  0  0  0  0  0  0
    3.6408    0.9531   -3.0195 C   0  0  0  0  0  0  0  0  0  0  0  0
    4.0839    0.8390   -4.3258 C   0  0  0  0  0  0  0  0  0  0  0  0
    5.4557    0.8904   -4.6327 C   0  0  0  0  0  0  0  0  0  0  0  0
    6.3653    1.0681   -3.6068 C   0  0  0  0  0  0  0  0  0  0  0  0
    5.9345    1.1883   -2.2690 C   0  0  0  0  0  0  0  0  0  0  0  0
    7.1930    1.3835   -1.0935 S   0  0  0  0  0  0  0  0  0  0  0  0
    6.3048    1.6838    0.3757 C   0  0  0  0  0  0  0  0  0  0  0  0
    7.0901    2.0615    1.4806 C   0  0  0  0  0  0  0  0  0  0  0  0
    6.5237    2.3689    2.7115 C   0  0  0  0  0  0  0  0  0  0  0  0
    7.3557    2.7947    3.8721 C   0  0  0  0  0  0  0  0  0  0  0  0
    7.8569    4.0495    4.1237 C   0  0  0  0  0  0  0  0  0  0  0  0
    7.7096    5.3035    3.4372 C   0  0  0  0  0  0  0  0  0  0  0  0
    6.7643    5.5171    2.4011 C   0  0  0  0  0  0  0  0  0  0  0  0
    6.5954    6.7334    1.6941 C   0  0  0  0  0  0  0  0  0  0  0  0
    5.8121    6.9771    0.7890 O   0  0  0  0  0  0  0  0  0  0  0  0
    7.4407    7.7966    2.0852 O   0  0  0  0  0  0  0  0  0  0  0  0
    8.3566    7.6652    3.0844 C   0  0  0  0  0  0  0  0  0  0  0  0
    9.1155    8.8033    3.3753 C   0  0  0  0  0  0  0  0  0  0  0  0
   10.0931    8.7721    4.3725 C   0  0  0  0  0  0  0  0  0  0  0  0
   10.3111    7.5828    5.0777 C   0  0  0  0  0  0  0  0  0  0  0  0
    9.5567    6.4482    4.7857 C   0  0  0  0  0  0  0  0  0  0  0  0
    8.5473    6.4451    3.7928 C   0  0  0  0  0  0  0  0  0  0  0  0
    5.1160    2.2329    2.8052 C   0  0  0  0  0  0  0  0  0  0  0  0
    4.3289    1.8420    1.7360 C   0  0  0  0  0  0  0  0  0  0  0  0
    4.8959    1.5670    0.4691 C   0  0  0  0  0  0  0  0  0  0  0  0
   -0.3253    2.7748   -0.2361 H   0  0  0  0  0  0  0  0  0  0  0  0
    0.1755    1.4669    0.8557 H   0  0  0  0  0  0  0  0  0  0  0  0
   -0.1090    1.1279   -0.8674 H   0  0  0  0  0  0  0  0  0  0  0  0
    2.1295    2.9685    0.2307 H   0  0  0  0  0  0  0  0  0  0  0  0
    1.8507    2.6421   -1.4704 H   0  0  0  0  0  0  0  0  0  0  0  0
    2.3187    0.1799   -1.0723 H   0  0  0  0  0  0  0  0  0  0  0  0
    2.5748    0.4967    0.6231 H   0  0  0  0  0  0  0  0  0  0  0  0
    2.5701    0.9349   -2.8396 H   0  0  0  0  0  0  0  0  0  0  0  0
    3.3503    0.7183   -5.1253 H   0  0  0  0  0  0  0  0  0  0  0  0
    5.7987    0.8017   -5.6647 H   0  0  0  0  0  0  0  0  0  0  0  0
    7.4355    1.1247   -3.8187 H   0  0  0  0  0  0  0  0  0  0  0  0
    8.1708    2.1597    1.3553 H   0  0  0  0  0  0  0  0  0  0  0  0
    7.5863    1.9944    4.5817 H   0  0  0  0  0  0  0  0  0  0  0  0
    8.4834    4.0841    5.0197 H   0  0  0  0  0  0  0  0  0  0  0  0
    6.0626    4.7459    2.1053 H   0  0  0  0  0  0  0  0  0  0  0  0
    8.9158    9.7070    2.7957 H   0  0  0  0  0  0  0  0  0  0  0  0
   10.6807    9.6669    4.5917 H   0  0  0  0  0  0  0  0  0  0  0  0
   11.0772    7.5358    5.8563 H   0  0  0  0  0  0  0  0  0  0  0  0
    9.7609    5.5319    5.3424 H   0  0  0  0  0  0  0  0  0  0  0  0
    4.6336    2.4740    3.7541 H   0  0  0  0  0  0  0  0  0  0  0  0
    3.2537    1.7921    1.8858 H   0  0  0  0  0  0  0  0  0  0  0  0
  1  2  1  0
  1 31  1  0
  1 32  1  0
  1 33  1  0
  2  3  1  0
  2 34  1  0
  2 35  1  0
  3  4  1  0
  3 36  1  0
  3 37  1  0
  4  5  1  0
  4 30  1  0
  5  6  1  0
  5 10  2  0
  6  7  2  0
  6 38  1  0
  7  8  1  0
  7 39  1  0
  8  9  2  0
  8 40  1  0
  9 10  1  0
  9 41  1  0
 10 11  1  0
 11 12  1  0
 12 13  1  0
 12 30  2  0
 13 14  2  0
 13 42  1  0
 14 15  1  0
 14 28  1  0
 15 16  2  0
 15 43  1  0
 16 17  1  0
 16 44  1  0
 17 18  2  0
 17 27  1  0
 18 19  1  0
 18 45  1  0
 19 20  2  0
 19 21  1  0
 21 22  1  0
 22 23  1  0
 22 27  2  0
 23 24  2  0
 23 46  1  0
 24 25  1  0
 24 47  1  0
 25 26  2  0
 25 48  1  0
 26 27  1  0
 26 49  1  0
 28 29  2  0
 28 50  1  0
 29 30  1  0
 29 51  1  0
M  END

