
     RDKit          3D

 42 45  0  0  0  0  0  0  0  0999 V2000
    4.0013    1.0621    0.4429 C   0  0  0  0  0  0  0  0  0  0  0  0
    3.2196   -0.1123    0.5097 O   0  0  0  0  0  0  0  0  0  0  0  0
    3.5969   -1.2080   -0.1836 C   0  0  0  0  0  0  0  0  0  0  0  0
    2.7549   -2.3318   -0.0775 C   0  0  0  0  0  0  0  0  0  0  0  0
    3.0604   -3.5093   -0.7424 C   0  0  0  0  0  0  0  0  0  0  0  0
    4.2270   -3.6155   -1.5401 C   0  0  0  0  0  0  0  0  0  0  0  0
    4.5962   -4.7923   -2.3077 C   0  0  0  0  0  0  0  0  0  0  0  0
    5.2817   -4.7514   -3.4259 N   0  0  0  0  0  0  0  0  0  0  0  0
    5.3843   -6.0300   -3.8990 C   0  0  0  0  0  0  0  0  0  0  0  0
    6.1081   -6.3076   -5.1144 C   0  0  0  0  0  0  0  0  0  0  0  0
    6.4209   -7.6155   -5.5631 C   0  0  0  0  0  0  0  0  0  0  0  0
    7.1351   -7.8160   -6.7406 C   0  0  0  0  0  0  0  0  0  0  0  0
    7.5669   -6.7388   -7.5326 C   0  0  0  0  0  0  0  0  0  0  0  0
    8.3139   -6.9559   -8.8217 C   0  0  0  0  0  0  0  0  0  0  0  0
    7.2673   -5.4349   -7.0831 C   0  0  0  0  0  0  0  0  0  0  0  0
    6.5649   -5.2190   -5.9091 C   0  0  0  0  0  0  0  0  0  0  0  0
    4.6984   -6.9394   -2.9979 C   0  0  0  0  0  0  0  0  0  0  0  0
    4.4325   -8.3452   -2.9737 C   0  0  0  0  0  0  0  0  0  0  0  0
    3.7535   -8.8545   -1.8314 C   0  0  0  0  0  0  0  0  0  0  0  0
    3.3755   -8.0325   -0.7852 C   0  0  0  0  0  0  0  0  0  0  0  0
    3.6177   -6.6334   -0.8470 C   0  0  0  0  0  0  0  0  0  0  0  0
    4.2518   -6.1521   -1.9871 N   0  0  0  0  0  0  0  0  0  0  0  0
    5.0435   -2.4680   -1.6611 C   0  0  0  0  0  0  0  0  0  0  0  0
    4.7461   -1.2851   -0.9928 C   0  0  0  0  0  0  0  0  0  0  0  0
    3.5012    1.8051    1.0780 H   0  0  0  0  0  0  0  0  0  0  0  0
    4.0634    1.4544   -0.5876 H   0  0  0  0  0  0  0  0  0  0  0  0
    5.0241    0.8944    0.8243 H   0  0  0  0  0  0  0  0  0  0  0  0
    1.8499   -2.2439    0.5267 H   0  0  0  0  0  0  0  0  0  0  0  0
    2.3684   -4.3489   -0.6769 H   0  0  0  0  0  0  0  0  0  0  0  0
    6.1362   -8.4785   -4.9658 H   0  0  0  0  0  0  0  0  0  0  0  0
    7.3689   -8.8375   -7.0536 H   0  0  0  0  0  0  0  0  0  0  0  0
    8.6117   -8.0071   -8.9483 H   0  0  0  0  0  0  0  0  0  0  0  0
    9.2229   -6.3336   -8.8694 H   0  0  0  0  0  0  0  0  0  0  0  0
    7.6930   -6.6774   -9.6916 H   0  0  0  0  0  0  0  0  0  0  0  0
    7.5977   -4.5762   -7.6754 H   0  0  0  0  0  0  0  0  0  0  0  0
    6.3402   -4.2077   -5.5693 H   0  0  0  0  0  0  0  0  0  0  0  0
    4.6860   -8.9832   -3.8120 H   0  0  0  0  0  0  0  0  0  0  0  0
    3.5389   -9.9253   -1.7793 H   0  0  0  0  0  0  0  0  0  0  0  0
    2.8884   -8.4387    0.1026 H   0  0  0  0  0  0  0  0  0  0  0  0
    3.5105   -5.9517   -0.0118 H   0  0  0  0  0  0  0  0  0  0  0  0
    5.9320   -2.5302   -2.2909 H   0  0  0  0  0  0  0  0  0  0  0  0
    5.4136   -0.4303   -1.1027 H   0  0  0  0  0  0  0  0  0  0  0  0
  1  2  1  0
  1 25  1  0
  1 26  1  0
  1 27  1  0
  2  3  1  0
  3  4  2  0
  3 24  1  0
  4  5  1  0
  4 28  1  0
  5  6  2  0
  5 29  1  0
  6  7  1  0
  6 23  1  0
  7  8  2  0
  7 22  1  0
  8  9  1  0
  9 10  1  0
  9 17  2  0
 10 11  2  0
 10 16  1  0
 11 12  1  0
 11 30  1  0
 12 13  2  0
 12 31  1  0
 13 14  1  0
 13 15  1  0
 14 32  1  0
 14 33  1  0
 14 34  1  0
 15 16  2  0
 15 35  1  0
 16 36  1  0
 17 18  1  0
 17 22  1  0
 18 19  2  0
 18 37  1  0
 19 20  1  0
 19 38  1  0
 20 21  2  0
 20 39  1  0
 21 22  1  0
 21 40  1  0
 23 24  2  0
 23 41  1  0
 24 42  1  0
M  END

