
     RDKit          3D

 82 89  0  0  0  0  0  0  0  0999 V2000
    9.2573   -0.4979    0.7466 C   0  0  0  0  0  0  0  0  0  0  0  0
    7.9651    0.3673    0.7874 C   0  0  2  0  0  0  0  0  0  0  0  0
    8.3147    1.8060    1.2683 C   0  0  0  0  0  0  0  0  0  0  0  0
    6.9815   -0.2529    1.7720 C   0  0  0  0  0  0  0  0  0  0  0  0
    7.3488   -0.4309    3.1093 C   0  0  0  0  0  0  0  0  0  0  0  0
    6.4779   -0.9844    4.0491 C   0  0  0  0  0  0  0  0  0  0  0  0
    5.1884   -1.3793    3.6592 C   0  0  0  0  0  0  0  0  0  0  0  0
    4.7859   -1.2202    2.3471 C   0  0  0  0  0  0  0  0  0  0  0  0
    5.6705   -0.6583    1.3838 C   0  0  0  0  0  0  0  0  0  0  0  0
    5.2367   -0.5172    0.0744 N   0  0  0  0  0  0  0  0  0  0  0  0
    3.8823   -0.9431   -0.2740 C   0  0  0  0  0  0  0  0  0  0  0  0
    2.8191   -0.0289   -0.2031 C   0  0  0  0  0  0  0  0  0  0  0  0
    1.5295   -0.4393   -0.5229 C   0  0  0  0  0  0  0  0  0  0  0  0
    1.2437   -1.7766   -0.9219 C   0  0  0  0  0  0  0  0  0  0  0  0
   -0.0625   -2.3191   -1.3392 C   0  0  0  0  0  0  0  0  0  0  0  0
   -0.0879   -3.4104   -1.9669 O   0  0  0  0  0  0  0  0  0  0  0  0
   -1.3452   -1.6208   -1.0643 C   0  0  0  0  0  0  0  0  0  0  0  0
   -1.5861   -0.6971   -0.0184 C   0  0  0  0  0  0  0  0  0  0  0  0
   -2.8497   -0.1440    0.1880 C   0  0  0  0  0  0  0  0  0  0  0  0
   -3.9267   -0.4937   -0.6376 C   0  0  0  0  0  0  0  0  0  0  0  0
   -5.2280    0.0827   -0.4243 N   0  0  0  0  0  0  0  0  0  0  0  0
   -5.5745    1.2639   -1.0956 C   0  0  0  0  0  0  0  0  0  0  0  0
   -4.6469    1.8705   -1.9739 C   0  0  0  0  0  0  0  0  0  0  0  0
   -4.9591    3.0415   -2.6565 C   0  0  0  0  0  0  0  0  0  0  0  0
   -6.2071    3.6436   -2.4833 C   0  0  0  0  0  0  0  0  0  0  0  0
   -7.1224    3.0464   -1.6172 C   0  0  0  0  0  0  0  0  0  0  0  0
   -6.8423    1.8656   -0.9119 C   0  0  0  0  0  0  0  0  0  0  0  0
   -7.9096    1.2763    0.0208 C   0  0  1  0  0  0  0  0  0  0  0  0
   -8.2568    2.3195    1.1163 C   0  0  0  0  0  0  0  0  0  0  0  0
   -9.1840    0.9564   -0.8056 C   0  0  0  0  0  0  0  0  0  0  0  0
   -7.4118   -0.0110    0.6929 C   0  0  0  0  0  0  0  0  0  0  0  0
   -8.2567   -0.6927    1.5826 C   0  0  0  0  0  0  0  0  0  0  0  0
   -7.8795   -1.8687    2.2300 C   0  0  0  0  0  0  0  0  0  0  0  0
   -6.6083   -2.3909    1.9818 C   0  0  0  0  0  0  0  0  0  0  0  0
   -5.7441   -1.7417    1.1064 C   0  0  0  0  0  0  0  0  0  0  0  0
   -6.1248   -0.5481    0.4512 C   0  0  0  0  0  0  0  0  0  0  0  0
   -3.7157   -1.4294   -1.6632 C   0  0  0  0  0  0  0  0  0  0  0  0
   -2.4582   -1.9866   -1.8629 C   0  0  0  0  0  0  0  0  0  0  0  0
    2.3613   -2.6617   -1.0201 C   0  0  0  0  0  0  0  0  0  0  0  0
    3.6470   -2.2651   -0.6950 C   0  0  0  0  0  0  0  0  0  0  0  0
    6.0533    0.0100   -0.9135 C   0  0  0  0  0  0  0  0  0  0  0  0
    5.5527    0.1110   -2.2425 C   0  0  0  0  0  0  0  0  0  0  0  0
    6.3404    0.6332   -3.2501 C   0  0  0  0  0  0  0  0  0  0  0  0
    7.6439    1.0700   -2.9650 C   0  0  0  0  0  0  0  0  0  0  0  0
    8.1403    0.9733   -1.6640 C   0  0  0  0  0  0  0  0  0  0  0  0
    7.3776    0.4485   -0.6163 C   0  0  0  0  0  0  0  0  0  0  0  0
    9.9992   -0.0616    0.0629 H   0  0  0  0  0  0  0  0  0  0  0  0
    9.7190   -0.5598    1.7422 H   0  0  0  0  0  0  0  0  0  0  0  0
    9.0361   -1.5204    0.4065 H   0  0  0  0  0  0  0  0  0  0  0  0
    9.0378    2.2796    0.5887 H   0  0  0  0  0  0  0  0  0  0  0  0
    7.4151    2.4379    1.3069 H   0  0  0  0  0  0  0  0  0  0  0  0
    8.7619    1.7845    2.2726 H   0  0  0  0  0  0  0  0  0  0  0  0
    8.3451   -0.1286    3.4349 H   0  0  0  0  0  0  0  0  0  0  0  0
    6.8031   -1.1074    5.0841 H   0  0  0  0  0  0  0  0  0  0  0  0
    4.4997   -1.8130    4.3864 H   0  0  0  0  0  0  0  0  0  0  0  0
    3.7912   -1.5237    2.0324 H   0  0  0  0  0  0  0  0  0  0  0  0
    3.0039    1.0085    0.0888 H   0  0  0  0  0  0  0  0  0  0  0  0
    0.7352    0.3057   -0.5014 H   0  0  0  0  0  0  0  0  0  0  0  0
   -0.7896   -0.4378    0.6795 H   0  0  0  0  0  0  0  0  0  0  0  0
   -3.0151    0.5572    1.0099 H   0  0  0  0  0  0  0  0  0  0  0  0
   -3.6720    1.4077   -2.1182 H   0  0  0  0  0  0  0  0  0  0  0  0
   -4.2181    3.4821   -3.3291 H   0  0  0  0  0  0  0  0  0  0  0  0
   -6.4672    4.5628   -3.0135 H   0  0  0  0  0  0  0  0  0  0  0  0
   -8.0984    3.5191   -1.4842 H   0  0  0  0  0  0  0  0  0  0  0  0
   -8.6297    3.2553    0.6721 H   0  0  0  0  0  0  0  0  0  0  0  0
   -7.3676    2.5605    1.7187 H   0  0  0  0  0  0  0  0  0  0  0  0
   -9.0352    1.9408    1.7965 H   0  0  0  0  0  0  0  0  0  0  0  0
   -9.9793    0.5408   -0.1679 H   0  0  0  0  0  0  0  0  0  0  0  0
   -9.5836    1.8611   -1.2890 H   0  0  0  0  0  0  0  0  0  0  0  0
   -8.9615    0.2204   -1.5932 H   0  0  0  0  0  0  0  0  0  0  0  0
   -9.2522   -0.2867    1.7770 H   0  0  0  0  0  0  0  0  0  0  0  0
   -8.5690   -2.3678    2.9148 H   0  0  0  0  0  0  0  0  0  0  0  0
   -6.2812   -3.3130    2.4698 H   0  0  0  0  0  0  0  0  0  0  0  0
   -4.7564   -2.1592    0.9182 H   0  0  0  0  0  0  0  0  0  0  0  0
   -4.5557   -1.7175   -2.3006 H   0  0  0  0  0  0  0  0  0  0  0  0
   -2.2897   -2.7331   -2.6405 H   0  0  0  0  0  0  0  0  0  0  0  0
    2.1544   -3.6734   -1.3712 H   0  0  0  0  0  0  0  0  0  0  0  0
    4.4767   -2.9740   -0.7667 H   0  0  0  0  0  0  0  0  0  0  0  0
    4.5421   -0.2302   -2.4502 H   0  0  0  0  0  0  0  0  0  0  0  0
    5.9435    0.7033   -4.2644 H   0  0  0  0  0  0  0  0  0  0  0  0
    8.2718    1.4851   -3.7560 H   0  0  0  0  0  0  0  0  0  0  0  0
    9.1557    1.3195   -1.4654 H   0  0  0  0  0  0  0  0  0  0  0  0
  2  1  1  1
  1 47  1  0
  1 48  1  0
  1 49  1  0
  2  3  1  0
  2  4  1  0
  2 46  1  0
  3 50  1  0
  3 51  1  0
  3 52  1  0
  4  5  1  0
  4  9  2  0
  5  6  2  0
  5 53  1  0
  6  7  1  0
  6 54  1  0
  7  8  2  0
  7 55  1  0
  8  9  1  0
  8 56  1  0
  9 10  1  0
 10 11  1  0
 10 41  1  0
 11 12  2  0
 11 40  1  0
 12 13  1  0
 12 57  1  0
 13 14  2  0
 13 58  1  0
 14 15  1  0
 14 39  1  0
 15 16  2  0
 15 17  1  0
 17 18  2  0
 17 38  1  0
 18 19  1  0
 18 59  1  0
 19 20  2  0
 19 60  1  0
 20 21  1  0
 20 37  1  0
 21 22  1  0
 21 36  1  0
 22 23  2  0
 22 27  1  0
 23 24  1  0
 23 61  1  0
 24 25  2  0
 24 62  1  0
 25 26  1  0
 25 63  1  0
 26 27  2  0
 26 64  1  0
 27 28  1  0
 28 29  1  1
 28 30  1  0
 28 31  1  0
 29 65  1  0
 29 66  1  0
 29 67  1  0
 30 68  1  0
 30 69  1  0
 30 70  1  0
 31 32  2  0
 31 36  1  0
 32 33  1  0
 32 71  1  0
 33 34  2  0
 33 72  1  0
 34 35  1  0
 34 73  1  0
 35 36  2  0
 35 74  1  0
 37 38  2  0
 37 75  1  0
 38 76  1  0
 39 40  2  0
 39 77  1  0
 40 78  1  0
 41 42  1  0
 41 46  2  0
 42 43  2  0
 42 79  1  0
 43 44  1  0
 43 80  1  0
 44 45  2  0
 44 81  1  0
 45 46  1  0
 45 82  1  0
M  END

