
     RDKit          3D

 35 36  0  0  0  0  0  0  0  0999 V2000
    6.3263    1.0555   -0.6549 C   0  0  0  0  0  0  0  0  0  0  0  0
    5.3167    0.8001    0.4522 C   0  0  0  0  0  0  0  0  0  0  0  0
    5.5272   -0.4780    1.0791 O   0  0  0  0  0  0  0  0  0  0  0  0
    4.9584   -1.5422    0.5094 C   0  0  0  0  0  0  0  0  0  0  0  0
    4.2820   -1.5033   -0.4953 O   0  0  0  0  0  0  0  0  0  0  0  0
    5.2408   -2.8278    1.2484 C   0  0  0  0  0  0  0  0  0  0  0  0
    4.6631   -4.0142    0.7281 C   0  0  0  0  0  0  0  0  0  0  0  0
    4.8848   -5.2234    1.3619 C   0  0  0  0  0  0  0  0  0  0  0  0
    4.2667   -6.4727    0.7943 C   0  0  0  0  0  0  0  0  0  0  0  0
    4.4312   -7.5945    1.2202 O   0  0  0  0  0  0  0  0  0  0  0  0
    3.4889   -6.2046   -0.2688 O   0  0  0  0  0  0  0  0  0  0  0  0
    2.8433   -7.3126   -0.9246 C   0  0  0  0  0  0  0  0  0  0  0  0
    3.7440   -7.9493   -1.9695 C   0  0  0  0  0  0  0  0  0  0  0  0
    5.7057   -5.2377    2.5431 C   0  0  0  0  0  0  0  0  0  0  0  0
    6.0277   -6.3944    3.3096 C   0  0  0  0  0  0  0  0  0  0  0  0
    6.8261   -6.2944    4.4316 C   0  0  0  0  0  0  0  0  0  0  0  0
    7.3475   -5.0462    4.8540 C   0  0  0  0  0  0  0  0  0  0  0  0
    7.0578   -3.9068    4.1389 C   0  0  0  0  0  0  0  0  0  0  0  0
    6.2372   -3.9686    2.9760 C   0  0  0  0  0  0  0  0  0  0  0  0
    5.9952   -2.8035    2.3248 N   0  0  0  0  0  0  0  0  0  0  0  0
    6.1924    2.0732   -1.0554 H   0  0  0  0  0  0  0  0  0  0  0  0
    6.1891    0.3426   -1.4813 H   0  0  0  0  0  0  0  0  0  0  0  0
    7.3561    0.9667   -0.2756 H   0  0  0  0  0  0  0  0  0  0  0  0
    4.2879    0.8441    0.0645 H   0  0  0  0  0  0  0  0  0  0  0  0
    5.4267    1.5292    1.2679 H   0  0  0  0  0  0  0  0  0  0  0  0
    4.0502   -3.9510   -0.1684 H   0  0  0  0  0  0  0  0  0  0  0  0
    1.9454   -6.8747   -1.3838 H   0  0  0  0  0  0  0  0  0  0  0  0
    2.5390   -8.0469   -0.1647 H   0  0  0  0  0  0  0  0  0  0  0  0
    4.0822   -7.2034   -2.7055 H   0  0  0  0  0  0  0  0  0  0  0  0
    3.1918   -8.7369   -2.5068 H   0  0  0  0  0  0  0  0  0  0  0  0
    4.6251   -8.4105   -1.4996 H   0  0  0  0  0  0  0  0  0  0  0  0
    5.6329   -7.3569    2.9931 H   0  0  0  0  0  0  0  0  0  0  0  0
    7.0594   -7.1959    5.0040 H   0  0  0  0  0  0  0  0  0  0  0  0
    7.9775   -4.9930    5.7455 H   0  0  0  0  0  0  0  0  0  0  0  0
    7.4368   -2.9246    4.4268 H   0  0  0  0  0  0  0  0  0  0  0  0
  1  2  1  0
  1 21  1  0
  1 22  1  0
  1 23  1  0
  2  3  1  0
  2 24  1  0
  2 25  1  0
  3  4  1  0
  4  5  2  0
  4  6  1  0
  6  7  2  0
  6 20  1  0
  7  8  1  0
  7 26  1  0
  8  9  1  0
  8 14  2  0
  9 10  2  0
  9 11  1  0
 11 12  1  0
 12 13  1  0
 12 27  1  0
 12 28  1  0
 13 29  1  0
 13 30  1  0
 13 31  1  0
 14 15  1  0
 14 19  1  0
 15 16  2  0
 15 32  1  0
 16 17  1  0
 16 33  1  0
 17 18  2  0
 17 34  1  0
 18 19  1  0
 18 35  1  0
 19 20  2  0
M  END

