
     RDKit          3D

 64 71  0  0  0  0  0  0  0  0999 V2000
   -5.5402   -2.3781   -3.8261 C   0  0  0  0  0  0  0  0  0  0  0  0
   -4.5428   -1.7563   -2.8878 C   0  0  0  0  0  0  0  0  0  0  0  0
   -3.1665   -1.9968   -3.0595 C   0  0  0  0  0  0  0  0  0  0  0  0
   -2.1637   -1.4661   -2.2376 C   0  0  0  0  0  0  0  0  0  0  0  0
   -0.7237   -1.7910   -2.5150 C   0  0  0  0  0  0  0  0  0  0  0  0
   -2.6236   -0.6353   -1.1728 C   0  0  0  0  0  0  0  0  0  0  0  0
   -4.0136   -0.3763   -0.9805 C   0  0  0  0  0  0  0  0  0  0  0  0
   -4.9647   -0.9263   -1.8227 C   0  0  0  0  0  0  0  0  0  0  0  0
   -4.1144    0.4972    0.1814 C   0  0  0  0  0  0  0  0  0  0  0  0
   -5.1947    1.0713    0.8288 C   0  0  0  0  0  0  0  0  0  0  0  0
   -4.9633    1.8920    1.9577 C   0  0  0  0  0  0  0  0  0  0  0  0
   -6.1059    2.5363    2.6933 C   0  0  0  0  0  0  0  0  0  0  0  0
   -3.6393    2.1002    2.3882 C   0  0  0  0  0  0  0  0  0  0  0  0
   -2.5115    1.5443    1.7705 C   0  0  0  0  0  0  0  0  0  0  0  0
   -1.1429    1.8353    2.3167 C   0  0  0  0  0  0  0  0  0  0  0  0
   -2.7805    0.7223    0.6356 C   0  0  0  0  0  0  0  0  0  0  0  0
   -1.9105    0.0334   -0.1922 N   0  0  0  0  0  0  0  0  0  0  0  0
   -0.4673    0.0109   -0.0503 C   0  0  0  0  0  0  0  0  0  0  0  0
    0.3002    0.9848   -0.7080 C   0  0  0  0  0  0  0  0  0  0  0  0
    1.6891    0.9437   -0.5557 C   0  0  0  0  0  0  0  0  0  0  0  0
    2.3439   -0.0344    0.2286 C   0  0  0  0  0  0  0  0  0  0  0  0
    1.5172   -0.9887    0.8657 C   0  0  0  0  0  0  0  0  0  0  0  0
    0.1249   -0.9852    0.7421 C   0  0  0  0  0  0  0  0  0  0  0  0
    2.0570   -1.9648    1.6397 O   0  0  0  0  0  0  0  0  0  0  0  0
    3.4242   -2.1046    1.8372 C   0  0  0  0  0  0  0  0  0  0  0  0
    3.7651   -3.1848    2.6491 C   0  0  0  0  0  0  0  0  0  0  0  0
    5.1130   -3.4479    2.9320 C   0  0  0  0  0  0  0  0  0  0  0  0
    6.0956   -2.6169    2.3884 C   0  0  0  0  0  0  0  0  0  0  0  0
    5.7337   -1.5388    1.5777 C   0  0  0  0  0  0  0  0  0  0  0  0
    4.3847   -1.2248    1.2630 C   0  0  0  0  0  0  0  0  0  0  0  0
    3.8642   -0.0584    0.3795 B   0  0  0  0  0  0  0  0  0  0  0  0
    4.5845    1.0891   -0.3802 C   0  0  0  0  0  0  0  0  0  0  0  0
    5.9781    1.3604   -0.4215 C   0  0  0  0  0  0  0  0  0  0  0  0
    6.5258    2.4253   -1.1404 C   0  0  0  0  0  0  0  0  0  0  0  0
    5.6955    3.2854   -1.8632 C   0  0  0  0  0  0  0  0  0  0  0  0
    4.3109    3.0646   -1.8527 C   0  0  0  0  0  0  0  0  0  0  0  0
    3.7835    1.9969   -1.1286 C   0  0  0  0  0  0  0  0  0  0  0  0
    2.4008    1.8997   -1.2054 O   0  0  0  0  0  0  0  0  0  0  0  0
   -5.4782   -3.4787   -3.7916 H   0  0  0  0  0  0  0  0  0  0  0  0
   -5.3368   -2.0825   -4.8687 H   0  0  0  0  0  0  0  0  0  0  0  0
   -6.5713   -2.0867   -3.5825 H   0  0  0  0  0  0  0  0  0  0  0  0
   -2.8542   -2.6389   -3.8868 H   0  0  0  0  0  0  0  0  0  0  0  0
   -0.6444   -2.4441   -3.3945 H   0  0  0  0  0  0  0  0  0  0  0  0
   -0.2519   -2.2924   -1.6578 H   0  0  0  0  0  0  0  0  0  0  0  0
   -0.1311   -0.8825   -2.6933 H   0  0  0  0  0  0  0  0  0  0  0  0
   -6.0287   -0.7281   -1.6744 H   0  0  0  0  0  0  0  0  0  0  0  0
   -6.2154    0.8988    0.4799 H   0  0  0  0  0  0  0  0  0  0  0  0
   -7.0771    2.2876    2.2435 H   0  0  0  0  0  0  0  0  0  0  0  0
   -6.0009    3.6340    2.6983 H   0  0  0  0  0  0  0  0  0  0  0  0
   -6.1244    2.2157    3.7483 H   0  0  0  0  0  0  0  0  0  0  0  0
   -3.4749    2.7362    3.2615 H   0  0  0  0  0  0  0  0  0  0  0  0
   -0.6181    0.9129    2.6030 H   0  0  0  0  0  0  0  0  0  0  0  0
   -1.2163    2.4896    3.1958 H   0  0  0  0  0  0  0  0  0  0  0  0
   -0.5045    2.3214    1.5652 H   0  0  0  0  0  0  0  0  0  0  0  0
   -0.1545    1.7608   -1.3256 H   0  0  0  0  0  0  0  0  0  0  0  0
   -0.4668   -1.7450    1.2547 H   0  0  0  0  0  0  0  0  0  0  0  0
    2.9640   -3.8093    3.0503 H   0  0  0  0  0  0  0  0  0  0  0  0
    5.3834   -4.2938    3.5686 H   0  0  0  0  0  0  0  0  0  0  0  0
    7.1522   -2.8084    2.5956 H   0  0  0  0  0  0  0  0  0  0  0  0
    6.5276   -0.9144    1.1668 H   0  0  0  0  0  0  0  0  0  0  0  0
    6.6555    0.7123    0.1351 H   0  0  0  0  0  0  0  0  0  0  0  0
    7.6078    2.5836   -1.1346 H   0  0  0  0  0  0  0  0  0  0  0  0
    6.1117    4.1214   -2.4304 H   0  0  0  0  0  0  0  0  0  0  0  0
    3.6242    3.7128   -2.4013 H   0  0  0  0  0  0  0  0  0  0  0  0
  1  2  1  0
  1 39  1  0
  1 40  1  0
  1 41  1  0
  2  3  2  0
  2  8  1  0
  3  4  1  0
  3 42  1  0
  4  5  1  0
  4  6  2  0
  5 43  1  0
  5 44  1  0
  5 45  1  0
  6  7  1  0
  6 17  1  0
  7  8  2  0
  7  9  1  0
  8 46  1  0
  9 10  2  0
  9 16  1  0
 10 11  1  0
 10 47  1  0
 11 12  1  0
 11 13  2  0
 12 48  1  0
 12 49  1  0
 12 50  1  0
 13 14  1  0
 13 51  1  0
 14 15  1  0
 14 16  2  0
 15 52  1  0
 15 53  1  0
 15 54  1  0
 16 17  1  0
 17 18  1  0
 18 19  2  0
 18 23  1  0
 19 20  1  0
 19 55  1  0
 20 21  2  0
 20 38  1  0
 21 22  1  0
 21 31  1  0
 22 23  2  0
 22 24  1  0
 23 56  1  0
 24 25  1  0
 25 26  2  0
 25 30  1  0
 26 27  1  0
 26 57  1  0
 27 28  2  0
 27 58  1  0
 28 29  1  0
 28 59  1  0
 29 30  2  0
 29 60  1  0
 30 31  1  0
 31 32  1  0
 32 33  1  0
 32 37  2  0
 33 34  2  0
 33 61  1  0
 34 35  1  0
 34 62  1  0
 35 36  2  0
 35 63  1  0
 36 37  1  0
 36 64  1  0
 37 38  1  0
M  END

