
     RDKit          3D

 94103  0  0  0  0  0  0  0  0999 V2000
    2.3897   -9.0778    5.9336 N   0  0  0  0  0  0  0  0  0  0  0  0
    1.7485   -8.2487    5.4240 C   0  0  0  0  0  0  0  0  0  0  0  0
    0.9803   -7.2238    4.7923 C   0  0  0  0  0  0  0  0  0  0  0  0
    1.6564   -6.2520    4.1055 N   0  0  0  0  0  0  0  0  0  0  0  0
    0.8968   -5.3069    3.5259 C   0  0  0  0  0  0  0  0  0  0  0  0
    1.5780   -4.2381    2.7819 C   0  0  0  0  0  0  0  0  0  0  0  0
    2.9872   -4.2425    2.7110 C   0  0  0  0  0  0  0  0  0  0  0  0
    3.6738   -3.2522    2.0330 C   0  0  0  0  0  0  0  0  0  0  0  0
    2.9584   -2.2191    1.3832 C   0  0  0  0  0  0  0  0  0  0  0  0
    3.6894   -1.1478    0.6496 C   0  0  0  0  0  0  0  0  0  0  0  0
    3.2275   -0.6599   -0.5896 C   0  0  0  0  0  0  0  0  0  0  0  0
    3.9112    0.3383   -1.2787 C   0  0  0  0  0  0  0  0  0  0  0  0
    5.0892    0.8741   -0.7365 C   0  0  0  0  0  0  0  0  0  0  0  0
    5.8045    1.8970   -1.4444 N   0  0  0  0  0  0  0  0  0  0  0  0
    6.1709    3.0695   -0.7683 C   0  0  0  0  0  0  0  0  0  0  0  0
    7.3931    3.7200   -1.0665 C   0  0  0  0  0  0  0  0  0  0  0  0
    7.7463    4.8763   -0.3812 C   0  0  0  0  0  0  0  0  0  0  0  0
    6.8996    5.4023    0.6043 C   0  0  0  0  0  0  0  0  0  0  0  0
    5.6922    4.7568    0.9085 C   0  0  0  0  0  0  0  0  0  0  0  0
    5.3259    3.5969    0.2377 C   0  0  0  0  0  0  0  0  0  0  0  0
    6.1225    1.6981   -2.7960 C   0  0  0  0  0  0  0  0  0  0  0  0
    6.4312    0.3982   -3.2637 C   0  0  0  0  0  0  0  0  0  0  0  0
    6.7414    0.2024   -4.6036 C   0  0  0  0  0  0  0  0  0  0  0  0
    6.7389    1.2823   -5.4984 C   0  0  0  0  0  0  0  0  0  0  0  0
    6.4209    2.5691   -5.0427 C   0  0  0  0  0  0  0  0  0  0  0  0
    6.1142    2.7844   -3.7043 C   0  0  0  0  0  0  0  0  0  0  0  0
    5.5708    0.4060    0.4955 C   0  0  0  0  0  0  0  0  0  0  0  0
    4.8746   -0.5914    1.1727 C   0  0  0  0  0  0  0  0  0  0  0  0
    1.5685   -2.2141    1.4428 C   0  0  0  0  0  0  0  0  0  0  0  0
    0.8377   -3.2082    2.1415 C   0  0  0  0  0  0  0  0  0  0  0  0
   -0.6227   -3.2066    2.2201 C   0  0  0  0  0  0  0  0  0  0  0  0
   -1.4203   -2.2192    1.6047 C   0  0  0  0  0  0  0  0  0  0  0  0
   -2.8148   -2.2153    1.6840 C   0  0  0  0  0  0  0  0  0  0  0  0
   -3.6208   -1.1600    1.0175 C   0  0  0  0  0  0  0  0  0  0  0  0
   -3.2354   -0.6082   -0.2203 C   0  0  0  0  0  0  0  0  0  0  0  0
   -3.9817    0.3916   -0.8422 C   0  0  0  0  0  0  0  0  0  0  0  0
   -5.1686    0.8657   -0.2607 C   0  0  0  0  0  0  0  0  0  0  0  0
   -5.9426    1.8771   -0.9037 N   0  0  0  0  0  0  0  0  0  0  0  0
   -6.3799    3.0021   -0.1629 C   0  0  0  0  0  0  0  0  0  0  0  0
   -5.5547    3.5756    0.8239 C   0  0  0  0  0  0  0  0  0  0  0  0
   -5.9930    4.6744    1.5645 C   0  0  0  0  0  0  0  0  0  0  0  0
   -7.2521    5.2364    1.3314 C   0  0  0  0  0  0  0  0  0  0  0  0
   -8.0745    4.6739    0.3496 C   0  0  0  0  0  0  0  0  0  0  0  0
   -7.6523    3.5650   -0.3845 C   0  0  0  0  0  0  0  0  0  0  0  0
   -6.2514    1.7457   -2.2805 C   0  0  0  0  0  0  0  0  0  0  0  0
   -6.5806    0.4881   -2.8222 C   0  0  0  0  0  0  0  0  0  0  0  0
   -6.8654    0.3544   -4.1818 C   0  0  0  0  0  0  0  0  0  0  0  0
   -6.8444    1.4674   -5.0285 C   0  0  0  0  0  0  0  0  0  0  0  0
   -6.5239    2.7201   -4.4952 C   0  0  0  0  0  0  0  0  0  0  0  0
   -6.2216    2.8613   -3.1400 C   0  0  0  0  0  0  0  0  0  0  0  0
   -5.5748    0.3148    0.9655 C   0  0  0  0  0  0  0  0  0  0  0  0
   -4.8093   -0.6677    1.5923 C   0  0  0  0  0  0  0  0  0  0  0  0
   -3.4348   -3.2561    2.4232 C   0  0  0  0  0  0  0  0  0  0  0  0
   -2.6855   -4.2409    3.0360 C   0  0  0  0  0  0  0  0  0  0  0  0
   -1.2696   -4.2480    2.9540 C   0  0  0  0  0  0  0  0  0  0  0  0
   -0.5070   -5.2896    3.6002 C   0  0  0  0  0  0  0  0  0  0  0  0
   -1.1872   -6.2727    4.2969 N   0  0  0  0  0  0  0  0  0  0  0  0
   -0.4347   -7.2035    4.8682 C   0  0  0  0  0  0  0  0  0  0  0  0
   -1.1362   -8.2390    5.6015 C   0  0  0  0  0  0  0  0  0  0  0  0
   -1.7115   -9.0607    6.1847 N   0  0  0  0  0  0  0  0  0  0  0  0
    3.5067   -5.0604    3.2118 H   0  0  0  0  0  0  0  0  0  0  0  0
    4.7645   -3.2881    1.9771 H   0  0  0  0  0  0  0  0  0  0  0  0
    2.3197   -1.0810   -1.0242 H   0  0  0  0  0  0  0  0  0  0  0  0
    3.5298    0.7093   -2.2322 H   0  0  0  0  0  0  0  0  0  0  0  0
    8.0703    3.2886   -1.8046 H   0  0  0  0  0  0  0  0  0  0  0  0
    8.6985    5.3630   -0.6016 H   0  0  0  0  0  0  0  0  0  0  0  0
    7.1833    6.3103    1.1400 H   0  0  0  0  0  0  0  0  0  0  0  0
    5.0280    5.1696    1.6701 H   0  0  0  0  0  0  0  0  0  0  0  0
    4.3793    3.1041    0.4594 H   0  0  0  0  0  0  0  0  0  0  0  0
    6.4503   -0.4364   -2.5627 H   0  0  0  0  0  0  0  0  0  0  0  0
    6.9966   -0.7990   -4.9553 H   0  0  0  0  0  0  0  0  0  0  0  0
    6.9776    1.1193   -6.5512 H   0  0  0  0  0  0  0  0  0  0  0  0
    6.3935    3.4066   -5.7426 H   0  0  0  0  0  0  0  0  0  0  0  0
    5.8282    3.7781   -3.3576 H   0  0  0  0  0  0  0  0  0  0  0  0
    6.4930    0.8143    0.9139 H   0  0  0  0  0  0  0  0  0  0  0  0
    5.2513   -0.9446    2.1338 H   0  0  0  0  0  0  0  0  0  0  0  0
    1.0259   -1.4012    0.9596 H   0  0  0  0  0  0  0  0  0  0  0  0
   -0.9388   -1.4044    1.0628 H   0  0  0  0  0  0  0  0  0  0  0  0
   -2.3372   -0.9830   -0.7167 H   0  0  0  0  0  0  0  0  0  0  0  0
   -3.6558    0.8000   -1.8013 H   0  0  0  0  0  0  0  0  0  0  0  0
   -4.5671    3.1496    1.0093 H   0  0  0  0  0  0  0  0  0  0  0  0
   -5.3359    5.1011    2.3272 H   0  0  0  0  0  0  0  0  0  0  0  0
   -7.5904    6.0990    1.9102 H   0  0  0  0  0  0  0  0  0  0  0  0
   -9.0670    5.0923    0.1613 H   0  0  0  0  0  0  0  0  0  0  0  0
   -8.3108    3.1244   -1.1351 H   0  0  0  0  0  0  0  0  0  0  0  0
   -6.6112   -0.3849   -2.1681 H   0  0  0  0  0  0  0  0  0  0  0  0
   -7.1199   -0.6318   -4.5795 H   0  0  0  0  0  0  0  0  0  0  0  0
   -7.0756    1.3599   -6.0909 H   0  0  0  0  0  0  0  0  0  0  0  0
   -6.4956    3.6002   -5.1436 H   0  0  0  0  0  0  0  0  0  0  0  0
   -5.9593    3.8416   -2.7380 H   0  0  0  0  0  0  0  0  0  0  0  0
   -6.4943    0.6703    1.4353 H   0  0  0  0  0  0  0  0  0  0  0  0
   -5.1396   -1.0576    2.5577 H   0  0  0  0  0  0  0  0  0  0  0  0
   -4.5250   -3.2964    2.4862 H   0  0  0  0  0  0  0  0  0  0  0  0
   -3.1606   -5.0485    3.5936 H   0  0  0  0  0  0  0  0  0  0  0  0
  1  2  3  0
  2  3  1  0
  3  4  2  0
  3 58  1  0
  4  5  1  0
  5  6  2  0
  5 56  1  0
  6  7  1  0
  6 30  1  0
  7  8  2  0
  7 61  1  0
  8  9  1  0
  8 62  1  0
  9 10  1  0
  9 29  2  0
 10 11  2  0
 10 28  1  0
 11 12  1  0
 11 63  1  0
 12 13  2  0
 12 64  1  0
 13 14  1  0
 13 27  1  0
 14 15  1  0
 14 21  1  0
 15 16  2  0
 15 20  1  0
 16 17  1  0
 16 65  1  0
 17 18  2  0
 17 66  1  0
 18 19  1  0
 18 67  1  0
 19 20  2  0
 19 68  1  0
 20 69  1  0
 21 22  2  0
 21 26  1  0
 22 23  1  0
 22 70  1  0
 23 24  2  0
 23 71  1  0
 24 25  1  0
 24 72  1  0
 25 26  2  0
 25 73  1  0
 26 74  1  0
 27 28  2  0
 27 75  1  0
 28 76  1  0
 29 30  1  0
 29 77  1  0
 30 31  2  0
 31 32  1  0
 31 55  1  0
 32 33  2  0
 32 78  1  0
 33 34  1  0
 33 53  1  0
 34 35  2  0
 34 52  1  0
 35 36  1  0
 35 79  1  0
 36 37  2  0
 36 80  1  0
 37 38  1  0
 37 51  1  0
 38 39  1  0
 38 45  1  0
 39 40  2  0
 39 44  1  0
 40 41  1  0
 40 81  1  0
 41 42  2  0
 41 82  1  0
 42 43  1  0
 42 83  1  0
 43 44  2  0
 43 84  1  0
 44 85  1  0
 45 46  2  0
 45 50  1  0
 46 47  1  0
 46 86  1  0
 47 48  2  0
 47 87  1  0
 48 49  1  0
 48 88  1  0
 49 50  2  0
 49 89  1  0
 50 90  1  0
 51 52  2  0
 51 91  1  0
 52 92  1  0
 53 54  2  0
 53 93  1  0
 54 55  1  0
 54 94  1  0
 55 56  2  0
 56 57  1  0
 57 58  2  0
 58 59  1  0
 59 60  3  0
M  END

