
     RDKit          3D

 51 57  0  0  0  0  0  0  0  0999 V2000
    1.5450    1.3290    1.0141 Cl  0  0  0  0  0  0  0  0  0  0  0  0
    3.1907    0.9533    0.5918 C   0  0  0  0  0  0  0  0  0  0  0  0
    3.8207   -0.1536    1.1719 C   0  0  0  0  0  0  0  0  0  0  0  0
    5.1341   -0.4590    0.8254 C   0  0  0  0  0  0  0  0  0  0  0  0
    5.8434    0.3362   -0.0979 C   0  0  0  0  0  0  0  0  0  0  0  0
    7.2505    0.0800   -0.4593 C   0  0  0  0  0  0  0  0  0  0  0  0
    7.8871   -1.1537   -0.6018 C   0  0  0  0  0  0  0  0  0  0  0  0
    7.1314   -2.4278   -0.4521 C   0  0  0  0  0  0  0  0  0  0  0  0
    6.0956   -2.7611   -1.3423 C   0  0  0  0  0  0  0  0  0  0  0  0
    5.3966   -3.9615   -1.2153 C   0  0  0  0  0  0  0  0  0  0  0  0
    5.7267   -4.8436   -0.1813 C   0  0  0  0  0  0  0  0  0  0  0  0
    4.8492   -6.3406   -0.0083 Cl  0  0  0  0  0  0  0  0  0  0  0  0
    6.7563   -4.5369    0.7147 C   0  0  0  0  0  0  0  0  0  0  0  0
    7.4567   -3.3388    0.5700 C   0  0  0  0  0  0  0  0  0  0  0  0
    9.2976   -1.1936   -0.9453 C   0  0  0  0  0  0  0  0  0  0  0  0
   10.0254   -2.3774   -1.1463 C   0  0  0  0  0  0  0  0  0  0  0  0
   11.3905   -2.3066   -1.4751 C   0  0  0  0  0  0  0  0  0  0  0  0
   12.0461   -1.0868   -1.6208 C   0  0  0  0  0  0  0  0  0  0  0  0
   11.3537    0.1375   -1.4567 C   0  0  0  0  0  0  0  0  0  0  0  0
    9.9658    0.0643   -1.1191 C   0  0  0  0  0  0  0  0  0  0  0  0
    9.2468    1.2692   -0.9820 C   0  0  0  0  0  0  0  0  0  0  0  0
    9.8366    2.5082   -1.1471 C   0  0  0  0  0  0  0  0  0  0  0  0
   11.2380    2.6107   -1.4715 C   0  0  0  0  0  0  0  0  0  0  0  0
   11.7584    3.8353   -1.6142 N   0  0  0  0  0  0  0  0  0  0  0  0
   13.0820    3.8932   -1.9230 C   0  0  0  0  0  0  0  0  0  0  0  0
   13.7114    5.1508   -2.0879 C   0  0  0  0  0  0  0  0  0  0  0  0
   15.0633    5.2394   -2.4040 C   0  0  0  0  0  0  0  0  0  0  0  0
   15.8273    4.0649   -2.5661 C   0  0  0  0  0  0  0  0  0  0  0  0
   15.2451    2.8122   -2.4127 C   0  0  0  0  0  0  0  0  0  0  0  0
   13.8676    2.6797   -2.0886 C   0  0  0  0  0  0  0  0  0  0  0  0
   13.3210    1.4537   -1.9419 N   0  0  0  0  0  0  0  0  0  0  0  0
   11.9999    1.4131   -1.6288 C   0  0  0  0  0  0  0  0  0  0  0  0
    7.9094    1.2346   -0.6650 O   0  0  0  0  0  0  0  0  0  0  0  0
    5.1942    1.4627   -0.6479 C   0  0  0  0  0  0  0  0  0  0  0  0
    3.8768    1.7658   -0.3185 C   0  0  0  0  0  0  0  0  0  0  0  0
    3.2829   -0.7655    1.8974 H   0  0  0  0  0  0  0  0  0  0  0  0
    5.6173   -1.3105    1.3021 H   0  0  0  0  0  0  0  0  0  0  0  0
    5.8363   -2.0744   -2.1509 H   0  0  0  0  0  0  0  0  0  0  0  0
    4.5985   -4.2177   -1.9138 H   0  0  0  0  0  0  0  0  0  0  0  0
    7.0041   -5.2340    1.5166 H   0  0  0  0  0  0  0  0  0  0  0  0
    8.2595   -3.1003    1.2713 H   0  0  0  0  0  0  0  0  0  0  0  0
    9.5372   -3.3468   -1.0568 H   0  0  0  0  0  0  0  0  0  0  0  0
   11.9477   -3.2348   -1.6257 H   0  0  0  0  0  0  0  0  0  0  0  0
   13.1049   -1.0318   -1.8782 H   0  0  0  0  0  0  0  0  0  0  0  0
    9.2585    3.4262   -1.0338 H   0  0  0  0  0  0  0  0  0  0  0  0
   13.0933    6.0418   -1.9563 H   0  0  0  0  0  0  0  0  0  0  0  0
   15.5342    6.2179   -2.5275 H   0  0  0  0  0  0  0  0  0  0  0  0
   16.8894    4.1404   -2.8153 H   0  0  0  0  0  0  0  0  0  0  0  0
   15.8232    1.8937   -2.5347 H   0  0  0  0  0  0  0  0  0  0  0  0
    5.7310    2.1021   -1.3497 H   0  0  0  0  0  0  0  0  0  0  0  0
    3.3772    2.6293   -0.7600 H   0  0  0  0  0  0  0  0  0  0  0  0
  1  2  1  0
  2  3  2  0
  2 35  1  0
  3  4  1  0
  3 36  1  0
  4  5  2  0
  4 37  1  0
  5  6  1  0
  5 34  1  0
  6  7  2  0
  6 33  1  0
  7  8  1  0
  7 15  1  0
  8  9  2  0
  8 14  1  0
  9 10  1  0
  9 38  1  0
 10 11  2  0
 10 39  1  0
 11 12  1  0
 11 13  1  0
 13 14  2  0
 13 40  1  0
 14 41  1  0
 15 16  2  0
 15 20  1  0
 16 17  1  0
 16 42  1  0
 17 18  2  0
 17 43  1  0
 18 19  1  0
 18 44  1  0
 19 20  2  0
 19 32  1  0
 20 21  1  0
 21 22  2  0
 21 33  1  0
 22 23  1  0
 22 45  1  0
 23 24  1  0
 23 32  2  0
 24 25  2  0
 25 26  1  0
 25 30  1  0
 26 27  2  0
 26 46  1  0
 27 28  1  0
 27 47  1  0
 28 29  2  0
 28 48  1  0
 29 30  1  0
 29 49  1  0
 30 31  2  0
 31 32  1  0
 34 35  2  0
 34 50  1  0
 35 51  1  0
M  END

