
     RDKit          3D

144157  0  0  0  0  0  0  0  0999 V2000
   -6.3458    4.2877    5.0601 C   0  0  0  0  0  0  0  0  0  0  0  0
   -6.0946    5.5834    4.5945 C   0  0  0  0  0  0  0  0  0  0  0  0
   -6.2438    5.8827    3.2420 C   0  0  0  0  0  0  0  0  0  0  0  0
   -6.6621    4.8928    2.3230 C   0  0  0  0  0  0  0  0  0  0  0  0
   -6.8474    5.2104    0.8914 C   0  0  0  0  0  0  0  0  0  0  0  0
   -5.9344    6.0253    0.1930 C   0  0  0  0  0  0  0  0  0  0  0  0
   -6.3539    6.7504   -1.0398 C   0  0  0  0  0  0  0  0  0  0  0  0
   -7.5468    7.4998   -1.0684 C   0  0  0  0  0  0  0  0  0  0  0  0
   -7.9194    8.2023   -2.2139 C   0  0  0  0  0  0  0  0  0  0  0  0
   -7.1159    8.1588   -3.3586 C   0  0  0  0  0  0  0  0  0  0  0  0
   -5.9299    7.4183   -3.3469 C   0  0  0  0  0  0  0  0  0  0  0  0
   -5.5468    6.7289   -2.1956 C   0  0  0  0  0  0  0  0  0  0  0  0
   -4.5643    6.2200    0.6305 C   0  0  0  0  0  0  0  0  0  0  0  0
   -3.8167    5.1972    1.2933 C   0  0  0  0  0  0  0  0  0  0  0  0
   -2.5038    5.3696    1.6573 C   0  0  0  0  0  0  0  0  0  0  0  0
   -1.8273    6.6122    1.4155 C   0  0  0  0  0  0  0  0  0  0  0  0
   -0.5437    6.8160    1.7968 N   0  0  0  0  0  0  0  0  0  0  0  0
    0.2759    5.7565    2.3293 C   0  0  0  0  0  0  0  0  0  0  0  0
    0.6263    4.6677    1.5189 C   0  0  0  0  0  0  0  0  0  0  0  0
    1.4512    3.6603    2.0256 C   0  0  0  0  0  0  0  0  0  0  0  0
    1.9352    3.7403    3.3343 C   0  0  0  0  0  0  0  0  0  0  0  0
    1.5934    4.8344    4.1359 C   0  0  0  0  0  0  0  0  0  0  0  0
    0.7675    5.8439    3.6379 C   0  0  0  0  0  0  0  0  0  0  0  0
    0.0946    8.1186    1.6576 C   0  0  0  0  0  0  0  0  0  0  0  0
   -0.0926    9.1047    2.6285 C   0  0  0  0  0  0  0  0  0  0  0  0
    0.5195   10.3513    2.4936 C   0  0  0  0  0  0  0  0  0  0  0  0
    1.3537   10.6539    1.3914 C   0  0  0  0  0  0  0  0  0  0  0  0
    2.0182   11.9664    1.2516 C   0  0  0  0  0  0  0  0  0  0  0  0
    3.0846   12.1505    0.3487 C   0  0  0  0  0  0  0  0  0  0  0  0
    3.7320   13.2844    0.1181 N   0  0  0  0  0  0  0  0  0  0  0  0
    3.3966   14.4198    0.7656 C   0  0  0  0  0  0  0  0  0  0  0  0
    4.1697   15.6310    0.4061 C   0  0  0  0  0  0  0  0  0  0  0  0
    5.2035   15.5259   -0.5519 C   0  0  0  0  0  0  0  0  0  0  0  0
    5.9631   16.6291   -0.9272 C   0  0  0  0  0  0  0  0  0  0  0  0
    5.7080   17.8929   -0.3706 C   0  0  0  0  0  0  0  0  0  0  0  0
    6.4792   19.0355   -0.7707 N   0  0  0  0  0  0  0  0  0  0  0  0
    6.5221   19.3811   -2.1418 C   0  0  0  0  0  0  0  0  0  0  0  0
    5.3863   19.2062   -2.9568 C   0  0  0  0  0  0  0  0  0  0  0  0
    5.4315   19.5218   -4.3153 C   0  0  0  0  0  0  0  0  0  0  0  0
    6.5996   20.0280   -4.8941 C   0  0  0  0  0  0  0  0  0  0  0  0
    7.7312   20.2036   -4.0908 C   0  0  0  0  0  0  0  0  0  0  0  0
    7.7008   19.8777   -2.7344 C   0  0  0  0  0  0  0  0  0  0  0  0
    7.1573   19.7894    0.2078 C   0  0  0  0  0  0  0  0  0  0  0  0
    7.6793   19.1696    1.3616 C   0  0  0  0  0  0  0  0  0  0  0  0
    8.3377   19.9130    2.3369 C   0  0  0  0  0  0  0  0  0  0  0  0
    8.5111   21.3049    2.2169 C   0  0  0  0  0  0  0  0  0  0  0  0
    9.1926   22.1095    3.2721 C   0  0  0  0  0  0  0  0  0  0  0  0
   10.3894   21.7434    3.8317 C   0  0  0  0  0  0  0  0  0  0  0  0
   10.9384   22.3924    5.0627 C   0  0  0  0  0  0  0  0  0  0  0  0
   10.1513   22.5599    6.2179 C   0  0  0  0  0  0  0  0  0  0  0  0
   10.6811   23.1405    7.3721 C   0  0  0  0  0  0  0  0  0  0  0  0
   12.0116   23.5696    7.3994 C   0  0  0  0  0  0  0  0  0  0  0  0
   12.8107   23.4007    6.2640 C   0  0  0  0  0  0  0  0  0  0  0  0
   12.2830   22.8101    5.1142 C   0  0  0  0  0  0  0  0  0  0  0  0
   11.2481   20.6601    3.2592 C   0  0  0  0  0  0  0  0  0  0  0  0
   11.5813   20.6372    1.8914 C   0  0  0  0  0  0  0  0  0  0  0  0
   12.4100   19.6423    1.3697 C   0  0  0  0  0  0  0  0  0  0  0  0
   12.9239   18.6432    2.2026 C   0  0  0  0  0  0  0  0  0  0  0  0
   12.6105   18.6569    3.5652 C   0  0  0  0  0  0  0  0  0  0  0  0
   11.7911   19.6595    4.0884 C   0  0  0  0  0  0  0  0  0  0  0  0
    8.4681   23.3537    3.6814 C   0  0  0  0  0  0  0  0  0  0  0  0
    9.1213   24.5992    3.7354 C   0  0  0  0  0  0  0  0  0  0  0  0
    8.4290   25.7597    4.0880 C   0  0  0  0  0  0  0  0  0  0  0  0
    7.0671   25.7011    4.3988 C   0  0  0  0  0  0  0  0  0  0  0  0
    6.4010   24.4726    4.3404 C   0  0  0  0  0  0  0  0  0  0  0  0
    7.0910   23.3153    3.9744 C   0  0  0  0  0  0  0  0  0  0  0  0
    7.9633   21.9207    1.0744 C   0  0  0  0  0  0  0  0  0  0  0  0
    7.3075   21.1873    0.0898 C   0  0  0  0  0  0  0  0  0  0  0  0
    4.6827   18.0146    0.5760 C   0  0  0  0  0  0  0  0  0  0  0  0
    3.9320   16.9046    0.9669 C   0  0  0  0  0  0  0  0  0  0  0  0
    2.3478   14.3888    1.7401 C   0  0  0  0  0  0  0  0  0  0  0  0
    1.8985   15.4169    2.4848 N   0  0  0  0  0  0  0  0  0  0  0  0
    0.6865   14.8191    3.4655 S   0  0  0  0  0  0  0  0  0  0  0  0
    0.7051   13.2207    2.9471 N   0  0  0  0  0  0  0  0  0  0  0  0
    1.6517   13.1302    2.0035 C   0  0  0  0  0  0  0  0  0  0  0  0
    1.5119    9.6341    0.4211 C   0  0  0  0  0  0  0  0  0  0  0  0
    0.9020    8.3881    0.5495 C   0  0  0  0  0  0  0  0  0  0  0  0
   -2.5735    7.6507    0.7656 C   0  0  0  0  0  0  0  0  0  0  0  0
   -3.8722    7.4433    0.3690 C   0  0  0  0  0  0  0  0  0  0  0  0
   -8.0586    4.6640    0.2449 C   0  0  0  0  0  0  0  0  0  0  0  0
   -8.0180    4.1441   -1.0689 C   0  0  0  0  0  0  0  0  0  0  0  0
   -9.1564    3.5979   -1.6561 C   0  0  0  0  0  0  0  0  0  0  0  0
  -10.3680    3.5728   -0.9549 C   0  0  0  0  0  0  0  0  0  0  0  0
  -10.4288    4.0839    0.3460 C   0  0  0  0  0  0  0  0  0  0  0  0
   -9.2859    4.6110    0.9450 C   0  0  0  0  0  0  0  0  0  0  0  0
   -6.9387    3.5967    2.8163 C   0  0  0  0  0  0  0  0  0  0  0  0
   -6.7662    3.2958    4.1659 C   0  0  0  0  0  0  0  0  0  0  0  0
   -6.2220    4.0529    6.1198 H   0  0  0  0  0  0  0  0  0  0  0  0
   -5.7870    6.3662    5.2914 H   0  0  0  0  0  0  0  0  0  0  0  0
   -6.0613    6.8991    2.8892 H   0  0  0  0  0  0  0  0  0  0  0  0
   -8.1769    7.5434   -0.1779 H   0  0  0  0  0  0  0  0  0  0  0  0
   -8.8401    8.7904   -2.2130 H   0  0  0  0  0  0  0  0  0  0  0  0
   -7.4118    8.7056   -4.2570 H   0  0  0  0  0  0  0  0  0  0  0  0
   -5.2986    7.3793   -4.2375 H   0  0  0  0  0  0  0  0  0  0  0  0
   -4.6199    6.1508   -2.1941 H   0  0  0  0  0  0  0  0  0  0  0  0
   -4.2888    4.2343    1.4877 H   0  0  0  0  0  0  0  0  0  0  0  0
   -1.9708    4.5538    2.1422 H   0  0  0  0  0  0  0  0  0  0  0  0
    0.2606    4.6187    0.4909 H   0  0  0  0  0  0  0  0  0  0  0  0
    1.7257    2.8163    1.3883 H   0  0  0  0  0  0  0  0  0  0  0  0
    2.5860    2.9555    3.7267 H   0  0  0  0  0  0  0  0  0  0  0  0
    1.9748    4.9068    5.1571 H   0  0  0  0  0  0  0  0  0  0  0  0
    0.5113    6.7059    4.2556 H   0  0  0  0  0  0  0  0  0  0  0  0
   -0.7359    8.9088    3.4908 H   0  0  0  0  0  0  0  0  0  0  0  0
    0.3427   11.1308    3.2338 H   0  0  0  0  0  0  0  0  0  0  0  0
    3.4564   11.2899   -0.2187 H   0  0  0  0  0  0  0  0  0  0  0  0
    5.3955   14.5437   -0.9840 H   0  0  0  0  0  0  0  0  0  0  0  0
    6.7631   16.5204   -1.6636 H   0  0  0  0  0  0  0  0  0  0  0  0
    4.4683   18.8160   -2.5147 H   0  0  0  0  0  0  0  0  0  0  0  0
    4.5360   19.3772   -4.9260 H   0  0  0  0  0  0  0  0  0  0  0  0
    6.6296   20.2783   -5.9574 H   0  0  0  0  0  0  0  0  0  0  0  0
    8.6585   20.5856   -4.5271 H   0  0  0  0  0  0  0  0  0  0  0  0
    8.5971   20.0016   -2.1242 H   0  0  0  0  0  0  0  0  0  0  0  0
    7.5592   18.0933    1.4924 H   0  0  0  0  0  0  0  0  0  0  0  0
    8.7279   19.3985    3.2173 H   0  0  0  0  0  0  0  0  0  0  0  0
    9.1126   22.2242    6.2081 H   0  0  0  0  0  0  0  0  0  0  0  0
   10.0500   23.2550    8.2576 H   0  0  0  0  0  0  0  0  0  0  0  0
   12.4256   24.0260    8.3024 H   0  0  0  0  0  0  0  0  0  0  0  0
   13.8540   23.7281    6.2746 H   0  0  0  0  0  0  0  0  0  0  0  0
   12.9179   22.6740    4.2354 H   0  0  0  0  0  0  0  0  0  0  0  0
   11.1839   21.4126    1.2338 H   0  0  0  0  0  0  0  0  0  0  0  0
   12.6571   19.6482    0.3047 H   0  0  0  0  0  0  0  0  0  0  0  0
   13.5685   17.8612    1.7929 H   0  0  0  0  0  0  0  0  0  0  0  0
   13.0079   17.8823    4.2266 H   0  0  0  0  0  0  0  0  0  0  0  0
   11.5584   19.6658    5.1560 H   0  0  0  0  0  0  0  0  0  0  0  0
   10.1841   24.6550    3.4916 H   0  0  0  0  0  0  0  0  0  0  0  0
    8.9571   26.7167    4.1165 H   0  0  0  0  0  0  0  0  0  0  0  0
    6.5256   26.6090    4.6773 H   0  0  0  0  0  0  0  0  0  0  0  0
    5.3349   24.4153    4.5764 H   0  0  0  0  0  0  0  0  0  0  0  0
    6.5602   22.3619    3.9183 H   0  0  0  0  0  0  0  0  0  0  0  0
    8.0477   23.0041    0.9570 H   0  0  0  0  0  0  0  0  0  0  0  0
    6.8926   21.7025   -0.7779 H   0  0  0  0  0  0  0  0  0  0  0  0
    4.4731   18.9931    1.0150 H   0  0  0  0  0  0  0  0  0  0  0  0
    3.1411   17.0121    1.7078 H   0  0  0  0  0  0  0  0  0  0  0  0
    2.1148    9.8190   -0.4680 H   0  0  0  0  0  0  0  0  0  0  0  0
    1.0496    7.6258   -0.2197 H   0  0  0  0  0  0  0  0  0  0  0  0
   -2.0966    8.6128    0.5901 H   0  0  0  0  0  0  0  0  0  0  0  0
   -4.4043    8.2578   -0.1241 H   0  0  0  0  0  0  0  0  0  0  0  0
   -7.0771    4.1509   -1.6207 H   0  0  0  0  0  0  0  0  0  0  0  0
   -9.0999    3.1869   -2.6666 H   0  0  0  0  0  0  0  0  0  0  0  0
  -11.2622    3.1525   -1.4212 H   0  0  0  0  0  0  0  0  0  0  0  0
  -11.3724    4.0714    0.8964 H   0  0  0  0  0  0  0  0  0  0  0  0
   -9.3434    5.0119    1.9588 H   0  0  0  0  0  0  0  0  0  0  0  0
   -7.2654    2.8181    2.1242 H   0  0  0  0  0  0  0  0  0  0  0  0
   -6.9619    2.2827    4.5247 H   0  0  0  0  0  0  0  0  0  0  0  0
  1  2  2  0
  1 87  1  0
  1 88  1  0
  2  3  1  0
  2 89  1  0
  3  4  2  0
  3 90  1  0
  4  5  1  0
  4 86  1  0
  5  6  2  0
  5 80  1  0
  6  7  1  0
  6 13  1  0
  7  8  2  0
  7 12  1  0
  8  9  1  0
  8 91  1  0
  9 10  2  0
  9 92  1  0
 10 11  1  0
 10 93  1  0
 11 12  2  0
 11 94  1  0
 12 95  1  0
 13 14  2  0
 13 79  1  0
 14 15  1  0
 14 96  1  0
 15 16  2  0
 15 97  1  0
 16 17  1  0
 16 78  1  0
 17 18  1  0
 17 24  1  0
 18 19  2  0
 18 23  1  0
 19 20  1  0
 19 98  1  0
 20 21  2  0
 20 99  1  0
 21 22  1  0
 21100  1  0
 22 23  2  0
 22101  1  0
 23102  1  0
 24 25  2  0
 24 77  1  0
 25 26  1  0
 25103  1  0
 26 27  2  0
 26104  1  0
 27 28  1  0
 27 76  1  0
 28 29  2  0
 28 75  1  0
 29 30  1  0
 29105  1  0
 30 31  2  0
 31 32  1  0
 31 71  1  0
 32 33  2  0
 32 70  1  0
 33 34  1  0
 33106  1  0
 34 35  2  0
 34107  1  0
 35 36  1  0
 35 69  1  0
 36 37  1  0
 36 43  1  0
 37 38  2  0
 37 42  1  0
 38 39  1  0
 38108  1  0
 39 40  2  0
 39109  1  0
 40 41  1  0
 40110  1  0
 41 42  2  0
 41111  1  0
 42112  1  0
 43 44  2  0
 43 68  1  0
 44 45  1  0
 44113  1  0
 45 46  2  0
 45114  1  0
 46 47  1  0
 46 67  1  0
 47 48  2  0
 47 61  1  0
 48 49  1  0
 48 55  1  0
 49 50  2  0
 49 54  1  0
 50 51  1  0
 50115  1  0
 51 52  2  0
 51116  1  0
 52 53  1  0
 52117  1  0
 53 54  2  0
 53118  1  0
 54119  1  0
 55 56  2  0
 55 60  1  0
 56 57  1  0
 56120  1  0
 57 58  2  0
 57121  1  0
 58 59  1  0
 58122  1  0
 59 60  2  0
 59123  1  0
 60124  1  0
 61 62  2  0
 61 66  1  0
 62 63  1  0
 62125  1  0
 63 64  2  0
 63126  1  0
 64 65  1  0
 64127  1  0
 65 66  2  0
 65128  1  0
 66129  1  0
 67 68  2  0
 67130  1  0
 68131  1  0
 69 70  2  0
 69132  1  0
 70133  1  0
 71 72  2  0
 71 75  1  0
 72 73  1  0
 73 74  1  0
 74 75  2  0
 76 77  2  0
 76134  1  0
 77135  1  0
 78 79  2  0
 78136  1  0
 79137  1  0
 80 81  2  0
 80 85  1  0
 81 82  1  0
 81138  1  0
 82 83  2  0
 82139  1  0
 83 84  1  0
 83140  1  0
 84 85  2  0
 84141  1  0
 85142  1  0
 86 87  2  0
 86143  1  0
 87144  1  0
M  END

