
     RDKit          3D

 36 38  0  0  0  0  0  0  0  0999 V2000
    1.1531    0.0279    0.5505 N   0  0  0  0  0  0  0  0  0  0  0  0
    2.2938   -0.0019    0.3398 C   0  0  0  0  0  0  0  0  0  0  0  0
    3.7044   -0.0053    0.0784 C   0  0  0  0  0  0  0  0  0  0  0  0
    4.3748    1.2112   -0.0944 C   0  0  0  0  0  0  0  0  0  0  0  0
    5.7546    1.2524   -0.3549 C   0  0  0  0  0  0  0  0  0  0  0  0
    6.4179    2.4947   -0.5537 C   0  0  0  0  0  0  0  0  0  0  0  0
    7.0235    3.5331   -0.7454 C   0  0  0  0  0  0  0  0  0  0  0  0
    7.7651    4.7204   -0.9831 C   0  0  0  0  0  0  0  0  0  0  0  0
    7.3824    5.9583   -0.4312 C   0  0  0  0  0  0  0  0  0  0  0  0
    6.3008    6.0490    0.3309 F   0  0  0  0  0  0  0  0  0  0  0  0
    8.1656    7.0844   -0.6981 C   0  0  0  0  0  0  0  0  0  0  0  0
    7.8112    8.2498   -0.1785 F   0  0  0  0  0  0  0  0  0  0  0  0
    9.2438    7.0409   -1.4442 N   0  0  0  0  0  0  0  0  0  0  0  0
    9.6228    5.9025   -1.9749 C   0  0  0  0  0  0  0  0  0  0  0  0
   10.7137    5.8945   -2.7261 F   0  0  0  0  0  0  0  0  0  0  0  0
    8.9249    4.7081   -1.7830 C   0  0  0  0  0  0  0  0  0  0  0  0
    9.3388    3.5834   -2.3543 F   0  0  0  0  0  0  0  0  0  0  0  0
    6.4869    0.0275   -0.4325 C   0  0  0  0  0  0  0  0  0  0  0  0
    7.8897    0.0466   -0.6670 C   0  0  0  0  0  0  0  0  0  0  0  0
    9.0909    0.1053   -0.8559 C   0  0  0  0  0  0  0  0  0  0  0  0
   10.4900    0.2143   -1.0722 C   0  0  0  0  0  0  0  0  0  0  0  0
   11.1998    1.3726   -0.6980 C   0  0  0  0  0  0  0  0  0  0  0  0
   10.5757    2.3879   -0.1127 F   0  0  0  0  0  0  0  0  0  0  0  0
   12.5739    1.4277   -0.9422 C   0  0  0  0  0  0  0  0  0  0  0  0
   13.2447    2.5145   -0.5914 F   0  0  0  0  0  0  0  0  0  0  0  0
   13.2367    0.4447   -1.5040 N   0  0  0  0  0  0  0  0  0  0  0  0
   12.6036   -0.6476   -1.8604 C   0  0  0  0  0  0  0  0  0  0  0  0
   13.3036   -1.6208   -2.4231 F   0  0  0  0  0  0  0  0  0  0  0  0
   11.2304   -0.8238   -1.6704 C   0  0  0  0  0  0  0  0  0  0  0  0
   10.6312   -1.9451   -2.0476 F   0  0  0  0  0  0  0  0  0  0  0  0
    5.8069   -1.1899   -0.2636 C   0  0  0  0  0  0  0  0  0  0  0  0
    4.4305   -1.2238   -0.0109 C   0  0  0  0  0  0  0  0  0  0  0  0
    3.7758   -2.4893    0.1567 C   0  0  0  0  0  0  0  0  0  0  0  0
    3.2697   -3.5252    0.2884 N   0  0  0  0  0  0  0  0  0  0  0  0
    3.8151    2.1450   -0.0311 H   0  0  0  0  0  0  0  0  0  0  0  0
    6.3632   -2.1257   -0.3265 H   0  0  0  0  0  0  0  0  0  0  0  0
  1  2  3  0
  2  3  1  0
  3  4  2  0
  3 32  1  0
  4  5  1  0
  4 35  1  0
  5  6  1  0
  5 18  2  0
  6  7  3  0
  7  8  1  0
  8  9  2  0
  8 16  1  0
  9 10  1  0
  9 11  1  0
 11 12  1  0
 11 13  2  0
 13 14  1  0
 14 15  1  0
 14 16  2  0
 16 17  1  0
 18 19  1  0
 18 31  1  0
 19 20  3  0
 20 21  1  0
 21 22  2  0
 21 29  1  0
 22 23  1  0
 22 24  1  0
 24 25  1  0
 24 26  2  0
 26 27  1  0
 27 28  1  0
 27 29  2  0
 29 30  1  0
 31 32  2  0
 31 36  1  0
 32 33  1  0
 33 34  3  0
M  END

