
     RDKit          3D

 26 28  0  0  0  0  0  0  0  0999 V2000
    2.4727    1.3044   -0.2628 C   0  0  0  0  0  0  0  0  0  0  0  0
    2.3103   -0.0953   -0.1164 O   0  0  0  0  0  0  0  0  0  0  0  0
    2.9608   -0.9332   -0.9421 C   0  0  0  0  0  0  0  0  0  0  0  0
    3.8145   -0.5365   -1.9722 C   0  0  0  0  0  0  0  0  0  0  0  0
    4.4450   -1.5157   -2.7803 C   0  0  0  0  0  0  0  0  0  0  0  0
    4.2564   -2.8893   -2.5995 C   0  0  0  0  0  0  0  0  0  0  0  0
    3.4106   -3.3160   -1.5790 C   0  0  0  0  0  0  0  0  0  0  0  0
    2.7419   -2.3336   -0.7247 C   0  0  0  0  0  0  0  0  0  0  0  0
    1.9504   -3.0277    0.2193 C   0  0  0  0  0  0  0  0  0  0  0  0
    1.1035   -2.5853    1.2720 C   0  0  0  0  0  0  0  0  0  0  0  0
    0.4506   -3.5318    2.0396 C   0  0  0  0  0  0  0  0  0  0  0  0
    0.6226   -4.9253    1.7810 C   0  0  0  0  0  0  0  0  0  0  0  0
    1.4462   -5.3887    0.7550 C   0  0  0  0  0  0  0  0  0  0  0  0
    2.1193   -4.4576   -0.0381 C   0  0  0  0  0  0  0  0  0  0  0  0
    3.0363   -4.6711   -1.1690 C   0  0  0  0  0  0  0  0  0  0  0  0
    3.4066   -5.7548   -1.6616 O   0  0  0  0  0  0  0  0  0  0  0  0
    1.8516    1.7721    0.5114 H   0  0  0  0  0  0  0  0  0  0  0  0
    2.1354    1.6441   -1.2568 H   0  0  0  0  0  0  0  0  0  0  0  0
    3.5249    1.6020   -0.1165 H   0  0  0  0  0  0  0  0  0  0  0  0
    4.0061    0.5175   -2.1676 H   0  0  0  0  0  0  0  0  0  0  0  0
    5.1072   -1.1681   -3.5786 H   0  0  0  0  0  0  0  0  0  0  0  0
    4.7537   -3.6239   -3.2353 H   0  0  0  0  0  0  0  0  0  0  0  0
    0.9803   -1.5187    1.4596 H   0  0  0  0  0  0  0  0  0  0  0  0
   -0.2055   -3.2178    2.8545 H   0  0  0  0  0  0  0  0  0  0  0  0
    0.0897   -5.6443    2.4097 H   0  0  0  0  0  0  0  0  0  0  0  0
    1.5743   -6.4557    0.5609 H   0  0  0  0  0  0  0  0  0  0  0  0
  1  2  1  0
  1 17  1  0
  1 18  1  0
  1 19  1  0
  2  3  1  0
  3  4  2  0
  3  8  1  0
  4  5  1  0
  4 20  1  0
  5  6  2  0
  5 21  1  0
  6  7  1  0
  6 22  1  0
  7  8  2  0
  7 15  1  0
  8  9  1  0
  9 10  2  0
  9 14  1  0
 10 11  1  0
 10 23  1  0
 11 12  2  0
 11 24  1  0
 12 13  1  0
 12 25  1  0
 13 14  2  0
 13 26  1  0
 14 15  1  0
 15 16  2  0
M  END

