
     RDKit          3D

 59 65  0  0  0  0  0  0  0  0999 V2000
    4.3462    3.9577   -1.3613 C   0  0  0  0  0  0  0  0  0  0  0  0
    3.8234    3.8155   -0.0720 C   0  0  0  0  0  0  0  0  0  0  0  0
    3.3637    2.5755    0.3748 C   0  0  0  0  0  0  0  0  0  0  0  0
    3.4047    1.4544   -0.4735 C   0  0  0  0  0  0  0  0  0  0  0  0
    2.9254    0.1929   -0.0241 N   0  0  0  0  0  0  0  0  0  0  0  0
    1.7047    0.1281    0.7026 C   0  0  0  0  0  0  0  0  0  0  0  0
    0.5811    0.8589    0.2765 C   0  0  0  0  0  0  0  0  0  0  0  0
   -0.6125    0.8028    0.9982 C   0  0  0  0  0  0  0  0  0  0  0  0
   -0.7134    0.0083    2.1447 C   0  0  0  0  0  0  0  0  0  0  0  0
    0.3997   -0.7253    2.5683 C   0  0  0  0  0  0  0  0  0  0  0  0
    1.6020   -0.6621    1.8620 C   0  0  0  0  0  0  0  0  0  0  0  0
    3.6528   -0.9871   -0.2993 C   0  0  0  0  0  0  0  0  0  0  0  0
    5.0632   -0.9929   -0.2794 C   0  0  0  0  0  0  0  0  0  0  0  0
    5.7752   -2.1539   -0.5526 C   0  0  0  0  0  0  0  0  0  0  0  0
    5.1148   -3.3636   -0.8449 C   0  0  0  0  0  0  0  0  0  0  0  0
    5.9090   -4.5639   -1.1112 C   0  0  0  0  0  0  0  0  0  0  0  0
    7.2287   -4.6022   -1.1869 N   0  0  0  0  0  0  0  0  0  0  0  0
    7.5526   -5.9085   -1.4386 C   0  0  0  0  0  0  0  0  0  0  0  0
    8.8571   -6.4920   -1.6062 C   0  0  0  0  0  0  0  0  0  0  0  0
   10.0308   -5.7118   -1.5292 C   0  0  0  0  0  0  0  0  0  0  0  0
   11.2765   -6.2955   -1.6897 C   0  0  0  0  0  0  0  0  0  0  0  0
   11.3711   -7.6790   -1.9317 C   0  0  0  0  0  0  0  0  0  0  0  0
   10.2255   -8.4575   -2.0105 C   0  0  0  0  0  0  0  0  0  0  0  0
    8.9341   -7.8983   -1.8525 C   0  0  0  0  0  0  0  0  0  0  0  0
    7.7087   -8.7093   -1.9341 C   0  0  0  0  0  0  0  0  0  0  0  0
    7.7379  -10.1030   -2.1762 C   0  0  0  0  0  0  0  0  0  0  0  0
    6.5783  -10.8616   -2.2533 C   0  0  0  0  0  0  0  0  0  0  0  0
    5.3209  -10.2528   -2.0905 C   0  0  0  0  0  0  0  0  0  0  0  0
    5.2483   -8.8903   -1.8515 C   0  0  0  0  0  0  0  0  0  0  0  0
    6.4198   -8.1025   -1.7683 C   0  0  0  0  0  0  0  0  0  0  0  0
    6.4034   -6.6936   -1.5203 C   0  0  0  0  0  0  0  0  0  0  0  0
    5.3618   -5.8161   -1.3102 N   0  0  0  0  0  0  0  0  0  0  0  0
    4.3792   -6.0497   -1.2749 H   0  0  0  0  0  0  0  0  0  0  0  0
    3.7080   -3.3540   -0.8639 C   0  0  0  0  0  0  0  0  0  0  0  0
    2.9883   -2.1912   -0.6029 C   0  0  0  0  0  0  0  0  0  0  0  0
    3.9213    1.6041   -1.7733 C   0  0  0  0  0  0  0  0  0  0  0  0
    4.3950    2.8438   -2.2057 C   0  0  0  0  0  0  0  0  0  0  0  0
    4.7120    4.9280   -1.7052 H   0  0  0  0  0  0  0  0  0  0  0  0
    3.7843    4.6758    0.6013 H   0  0  0  0  0  0  0  0  0  0  0  0
    2.9696    2.4681    1.3871 H   0  0  0  0  0  0  0  0  0  0  0  0
    0.6505    1.4713   -0.6245 H   0  0  0  0  0  0  0  0  0  0  0  0
   -1.4757    1.3775    0.6522 H   0  0  0  0  0  0  0  0  0  0  0  0
   -1.6508   -0.0381    2.7040 H   0  0  0  0  0  0  0  0  0  0  0  0
    0.3382   -1.3435    3.4678 H   0  0  0  0  0  0  0  0  0  0  0  0
    2.4717   -1.2247    2.2068 H   0  0  0  0  0  0  0  0  0  0  0  0
    5.6003   -0.0734   -0.0413 H   0  0  0  0  0  0  0  0  0  0  0  0
    6.8662   -2.1539   -0.5297 H   0  0  0  0  0  0  0  0  0  0  0  0
    9.9241   -4.6419   -1.3400 H   0  0  0  0  0  0  0  0  0  0  0  0
   12.1821   -5.6865   -1.6288 H   0  0  0  0  0  0  0  0  0  0  0  0
   12.3510   -8.1462   -2.0590 H   0  0  0  0  0  0  0  0  0  0  0  0
   10.3375   -9.5257   -2.1993 H   0  0  0  0  0  0  0  0  0  0  0  0
    8.6954  -10.6075   -2.3082 H   0  0  0  0  0  0  0  0  0  0  0  0
    6.6455  -11.9358   -2.4420 H   0  0  0  0  0  0  0  0  0  0  0  0
    4.4075  -10.8493   -2.1525 H   0  0  0  0  0  0  0  0  0  0  0  0
    4.2703   -8.4173   -1.7262 H   0  0  0  0  0  0  0  0  0  0  0  0
    3.1458   -4.2598   -1.1079 H   0  0  0  0  0  0  0  0  0  0  0  0
    1.8981   -2.2105   -0.6391 H   0  0  0  0  0  0  0  0  0  0  0  0
    3.9497    0.7423   -2.4429 H   0  0  0  0  0  0  0  0  0  0  0  0
    4.7937    2.9413   -3.2188 H   0  0  0  0  0  0  0  0  0  0  0  0
  1  2  2  0
  1 37  1  0
  1 38  1  0
  2  3  1  0
  2 39  1  0
  3  4  2  0
  3 40  1  0
  4  5  1  0
  4 36  1  0
  5  6  1  0
  5 12  1  0
  6  7  2  0
  6 11  1  0
  7  8  1  0
  7 41  1  0
  8  9  2  0
  8 42  1  0
  9 10  1  0
  9 43  1  0
 10 11  2  0
 10 44  1  0
 11 45  1  0
 12 13  2  0
 12 35  1  0
 13 14  1  0
 13 46  1  0
 14 15  2  0
 14 47  1  0
 15 16  1  0
 15 34  1  0
 16 17  2  0
 16 32  1  0
 17 18  1  0
 18 19  2  0
 18 31  1  0
 19 20  1  0
 19 24  1  0
 20 21  2  0
 20 48  1  0
 21 22  1  0
 21 49  1  0
 22 23  2  0
 22 50  1  0
 23 24  1  0
 23 51  1  0
 24 25  2  0
 25 26  1  0
 25 30  1  0
 26 27  2  0
 26 52  1  0
 27 28  1  0
 27 53  1  0
 28 29  2  0
 28 54  1  0
 29 30  1  0
 29 55  1  0
 30 31  2  0
 31 32  1  0
 32 33  1  0
 34 35  2  0
 34 56  1  0
 35 57  1  0
 36 37  2  0
 36 58  1  0
 37 59  1  0
M  END

