
     RDKit          3D

114119  0  0  0  0  0  0  0  0999 V2000
    1.4629   -3.4816    0.8062 C   0  0  0  0  0  0  0  0  0  0  0  0
    2.9197   -3.5204    0.3523 C   0  0  0  0  0  0  0  0  0  0  0  0
    3.7800   -2.4716    0.8996 N   0  0  0  0  0  0  0  0  0  0  0  0
    3.5025   -1.9543    2.2344 C   0  0  0  0  0  0  0  0  0  0  0  0
    4.0894   -2.7874    3.3803 C   0  0  0  0  0  0  0  0  0  0  0  0
    5.0407   -2.2894    0.3352 C   0  0  0  0  0  0  0  0  0  0  0  0
    5.4759   -3.0417   -0.7862 C   0  0  0  0  0  0  0  0  0  0  0  0
    6.7214   -2.8232   -1.3703 C   0  0  0  0  0  0  0  0  0  0  0  0
    7.6124   -1.8449   -0.8950 C   0  0  0  0  0  0  0  0  0  0  0  0
    8.9441   -1.6290   -1.5263 C   0  0  0  0  0  0  0  0  0  0  0  0
    9.4369   -0.3712   -1.7869 C   0  0  0  0  0  0  0  0  0  0  0  0
   10.8746   -0.1264   -2.1228 C   0  0  0  0  0  0  0  0  0  0  0  0
   11.2313    0.6816   -3.2203 C   0  0  0  0  0  0  0  0  0  0  0  0
   12.5705    0.9336   -3.5261 C   0  0  0  0  0  0  0  0  0  0  0  0
   13.5875    0.3977   -2.7298 C   0  0  0  0  0  0  0  0  0  0  0  0
   13.2501   -0.3917   -1.6256 C   0  0  0  0  0  0  0  0  0  0  0  0
   11.9112   -0.6508   -1.3268 C   0  0  0  0  0  0  0  0  0  0  0  0
    8.5852    0.8535   -1.7584 C   0  0  0  0  0  0  0  0  0  0  0  0
    9.0417    2.0377   -1.1418 C   0  0  0  0  0  0  0  0  0  0  0  0
    8.2630    3.1928   -1.1375 C   0  0  0  0  0  0  0  0  0  0  0  0
    7.0117    3.2526   -1.7919 C   0  0  0  0  0  0  0  0  0  0  0  0
    6.1597    4.5685   -1.8196 B   0  0  0  0  0  0  0  0  0  0  0  0
    6.3386    5.6278   -0.6479 C   0  0  0  0  0  0  0  0  0  0  0  0
    6.1452    5.2506    0.7085 C   0  0  0  0  0  0  0  0  0  0  0  0
    5.7632    3.8418    1.1205 C   0  0  0  0  0  0  0  0  0  0  0  0
    6.2892    6.2004    1.7321 C   0  0  0  0  0  0  0  0  0  0  0  0
    6.6517    7.5241    1.4731 C   0  0  0  0  0  0  0  0  0  0  0  0
    6.8206    8.5317    2.5840 C   0  0  0  0  0  0  0  0  0  0  0  0
    6.8545    7.8893    0.1361 C   0  0  0  0  0  0  0  0  0  0  0  0
    6.6940    6.9811   -0.9168 C   0  0  0  0  0  0  0  0  0  0  0  0
    6.9353    7.4797   -2.3260 C   0  0  0  0  0  0  0  0  0  0  0  0
    5.1398    4.8062   -3.0161 C   0  0  0  0  0  0  0  0  0  0  0  0
    3.7618    5.0612   -2.7761 C   0  0  0  0  0  0  0  0  0  0  0  0
    3.1866    5.1274   -1.3767 C   0  0  0  0  0  0  0  0  0  0  0  0
    2.8796    5.2412   -3.8523 C   0  0  0  0  0  0  0  0  0  0  0  0
    3.3101    5.2070   -5.1813 C   0  0  0  0  0  0  0  0  0  0  0  0
    2.3531    5.4164   -6.3294 C   0  0  0  0  0  0  0  0  0  0  0  0
    4.6711    4.9760   -5.4141 C   0  0  0  0  0  0  0  0  0  0  0  0
    5.5808    4.7642   -4.3707 C   0  0  0  0  0  0  0  0  0  0  0  0
    7.0288    4.5183   -4.7493 C   0  0  0  0  0  0  0  0  0  0  0  0
    6.5779    2.0674   -2.4301 C   0  0  0  0  0  0  0  0  0  0  0  0
    7.3301    0.8963   -2.4015 C   0  0  0  0  0  0  0  0  0  0  0  0
    9.7084   -2.8667   -1.8465 C   0  0  0  0  0  0  0  0  0  0  0  0
    9.7777   -3.9435   -0.9428 C   0  0  0  0  0  0  0  0  0  0  0  0
   10.4791   -5.1110   -1.2296 C   0  0  0  0  0  0  0  0  0  0  0  0
   11.1557   -5.2833   -2.4647 C   0  0  0  0  0  0  0  0  0  0  0  0
   11.8878   -6.4288   -2.7480 N   0  0  0  0  0  0  0  0  0  0  0  0
   11.9560   -7.5311   -1.7976 C   0  0  0  0  0  0  0  0  0  0  0  0
   10.7583   -8.4894   -1.8121 C   0  0  0  0  0  0  0  0  0  0  0  0
   12.5626   -6.5902   -4.0295 C   0  0  0  0  0  0  0  0  0  0  0  0
   11.6785   -7.0799   -5.1838 C   0  0  0  0  0  0  0  0  0  0  0  0
   11.0490   -4.2146   -3.3922 C   0  0  0  0  0  0  0  0  0  0  0  0
   10.3564   -3.0492   -3.0822 C   0  0  0  0  0  0  0  0  0  0  0  0
    7.1965   -1.1236    0.2400 C   0  0  0  0  0  0  0  0  0  0  0  0
    5.9639   -1.3397    0.8454 C   0  0  0  0  0  0  0  0  0  0  0  0
    0.8979   -4.2388    0.2406 H   0  0  0  0  0  0  0  0  0  0  0  0
    1.0010   -2.5018    0.6060 H   0  0  0  0  0  0  0  0  0  0  0  0
    1.3348   -3.7141    1.8744 H   0  0  0  0  0  0  0  0  0  0  0  0
    2.9245   -3.4164   -0.7440 H   0  0  0  0  0  0  0  0  0  0  0  0
    3.3377   -4.5282    0.5618 H   0  0  0  0  0  0  0  0  0  0  0  0
    2.4141   -1.8770    2.3559 H   0  0  0  0  0  0  0  0  0  0  0  0
    3.8651   -0.9176    2.2982 H   0  0  0  0  0  0  0  0  0  0  0  0
    3.6862   -3.8132    3.3754 H   0  0  0  0  0  0  0  0  0  0  0  0
    3.8441   -2.3341    4.3548 H   0  0  0  0  0  0  0  0  0  0  0  0
    5.1855   -2.8573    3.3037 H   0  0  0  0  0  0  0  0  0  0  0  0
    4.8450   -3.8189   -1.2131 H   0  0  0  0  0  0  0  0  0  0  0  0
    7.0082   -3.4334   -2.2305 H   0  0  0  0  0  0  0  0  0  0  0  0
   10.4444    1.1116   -3.8449 H   0  0  0  0  0  0  0  0  0  0  0  0
   12.8210    1.5552   -4.3900 H   0  0  0  0  0  0  0  0  0  0  0  0
   14.6360    0.5996   -2.9641 H   0  0  0  0  0  0  0  0  0  0  0  0
   14.0360   -0.8062   -0.9884 H   0  0  0  0  0  0  0  0  0  0  0  0
   11.6575   -1.2660   -0.4612 H   0  0  0  0  0  0  0  0  0  0  0  0
   10.0173    2.0405   -0.6498 H   0  0  0  0  0  0  0  0  0  0  0  0
    8.6392    4.0833   -0.6259 H   0  0  0  0  0  0  0  0  0  0  0  0
    5.1175    3.3383    0.3877 H   0  0  0  0  0  0  0  0  0  0  0  0
    5.2337    3.8499    2.0858 H   0  0  0  0  0  0  0  0  0  0  0  0
    6.6541    3.2033    1.2381 H   0  0  0  0  0  0  0  0  0  0  0  0
    6.1112    5.8911    2.7672 H   0  0  0  0  0  0  0  0  0  0  0  0
    6.5694    8.1006    3.5646 H   0  0  0  0  0  0  0  0  0  0  0  0
    6.1776    9.4141    2.4276 H   0  0  0  0  0  0  0  0  0  0  0  0
    7.8596    8.8998    2.6355 H   0  0  0  0  0  0  0  0  0  0  0  0
    7.1408    8.9203   -0.0964 H   0  0  0  0  0  0  0  0  0  0  0  0
    7.2113    8.5445   -2.3240 H   0  0  0  0  0  0  0  0  0  0  0  0
    6.0449    7.3603   -2.9615 H   0  0  0  0  0  0  0  0  0  0  0  0
    7.7545    6.9315   -2.8199 H   0  0  0  0  0  0  0  0  0  0  0  0
    3.6408    5.9373   -0.7862 H   0  0  0  0  0  0  0  0  0  0  0  0
    3.3547    4.1933   -0.8164 H   0  0  0  0  0  0  0  0  0  0  0  0
    2.1004    5.2979   -1.4076 H   0  0  0  0  0  0  0  0  0  0  0  0
    1.8209    5.4218   -3.6412 H   0  0  0  0  0  0  0  0  0  0  0  0
    1.3267    5.5934   -5.9749 H   0  0  0  0  0  0  0  0  0  0  0  0
    2.3317    4.5395   -6.9986 H   0  0  0  0  0  0  0  0  0  0  0  0
    2.6499    6.2809   -6.9471 H   0  0  0  0  0  0  0  0  0  0  0  0
    5.0390    4.9599   -6.4454 H   0  0  0  0  0  0  0  0  0  0  0  0
    7.2752    3.4448   -4.7280 H   0  0  0  0  0  0  0  0  0  0  0  0
    7.7371    5.0119   -4.0687 H   0  0  0  0  0  0  0  0  0  0  0  0
    7.2317    4.8857   -5.7667 H   0  0  0  0  0  0  0  0  0  0  0  0
    5.6222    2.0695   -2.9621 H   0  0  0  0  0  0  0  0  0  0  0  0
    6.9574   -0.0003   -2.9003 H   0  0  0  0  0  0  0  0  0  0  0  0
    9.2723   -3.8630    0.0227 H   0  0  0  0  0  0  0  0  0  0  0  0
   10.4929   -5.8975   -0.4763 H   0  0  0  0  0  0  0  0  0  0  0  0
   12.0942   -7.1258   -0.7811 H   0  0  0  0  0  0  0  0  0  0  0  0
   12.8755   -8.0971   -2.0168 H   0  0  0  0  0  0  0  0  0  0  0  0
    9.8160   -7.9588   -1.6067 H   0  0  0  0  0  0  0  0  0  0  0  0
   10.8831   -9.2704   -1.0439 H   0  0  0  0  0  0  0  0  0  0  0  0
   10.6559   -8.9886   -2.7880 H   0  0  0  0  0  0  0  0  0  0  0  0
   13.3894   -7.3027   -3.8787 H   0  0  0  0  0  0  0  0  0  0  0  0
   13.0413   -5.6367   -4.3085 H   0  0  0  0  0  0  0  0  0  0  0  0
   11.2690   -8.0813   -4.9796 H   0  0  0  0  0  0  0  0  0  0  0  0
   12.2638   -7.1379   -6.1164 H   0  0  0  0  0  0  0  0  0  0  0  0
   10.8308   -6.3995   -5.3567 H   0  0  0  0  0  0  0  0  0  0  0  0
   11.5071   -4.2887   -4.3774 H   0  0  0  0  0  0  0  0  0  0  0  0
   10.3059   -2.2584   -3.8331 H   0  0  0  0  0  0  0  0  0  0  0  0
    7.8669   -0.3780    0.6727 H   0  0  0  0  0  0  0  0  0  0  0  0
    5.7239   -0.7529    1.7307 H   0  0  0  0  0  0  0  0  0  0  0  0
  1  2  1  0
  1 56  1  0
  1 57  1  0
  1 58  1  0
  2  3  1  0
  2 59  1  0
  2 60  1  0
  3  4  1  0
  3  6  1  0
  4  5  1  0
  4 61  1  0
  4 62  1  0
  5 63  1  0
  5 64  1  0
  5 65  1  0
  6  7  2  0
  6 55  1  0
  7  8  1  0
  7 66  1  0
  8  9  2  0
  8 67  1  0
  9 10  1  0
  9 54  1  0
 10 11  2  0
 10 43  1  0
 11 12  1  0
 11 18  1  0
 12 13  2  0
 12 17  1  0
 13 14  1  0
 13 68  1  0
 14 15  2  0
 14 69  1  0
 15 16  1  0
 15 70  1  0
 16 17  2  0
 16 71  1  0
 17 72  1  0
 18 19  2  0
 18 42  1  0
 19 20  1  0
 19 73  1  0
 20 21  2  0
 20 74  1  0
 21 22  1  0
 21 41  1  0
 22 23  1  0
 22 32  1  0
 23 24  2  0
 23 30  1  0
 24 25  1  0
 24 26  1  0
 25 75  1  0
 25 76  1  0
 25 77  1  0
 26 27  2  0
 26 78  1  0
 27 28  1  0
 27 29  1  0
 28 79  1  0
 28 80  1  0
 28 81  1  0
 29 30  2  0
 29 82  1  0
 30 31  1  0
 31 83  1  0
 31 84  1  0
 31 85  1  0
 32 33  2  0
 32 39  1  0
 33 34  1  0
 33 35  1  0
 34 86  1  0
 34 87  1  0
 34 88  1  0
 35 36  2  0
 35 89  1  0
 36 37  1  0
 36 38  1  0
 37 90  1  0
 37 91  1  0
 37 92  1  0
 38 39  2  0
 38 93  1  0
 39 40  1  0
 40 94  1  0
 40 95  1  0
 40 96  1  0
 41 42  2  0
 41 97  1  0
 42 98  1  0
 43 44  2  0
 43 53  1  0
 44 45  1  0
 44 99  1  0
 45 46  2  0
 45100  1  0
 46 47  1  0
 46 52  1  0
 47 48  1  0
 47 50  1  0
 48 49  1  0
 48101  1  0
 48102  1  0
 49103  1  0
 49104  1  0
 49105  1  0
 50 51  1  0
 50106  1  0
 50107  1  0
 51108  1  0
 51109  1  0
 51110  1  0
 52 53  2  0
 52111  1  0
 53112  1  0
 54 55  2  0
 54113  1  0
 55114  1  0
M  END

