
     RDKit          3D

105110  0  0  0  0  0  0  0  0999 V2000
   -0.1813    7.0907   -1.6426 C   0  0  0  0  0  0  0  0  0  0  0  0
    1.1762    7.5912   -2.1380 C   0  0  0  0  0  0  0  0  0  0  0  0
    2.2152    6.4785   -2.3089 C   0  0  0  0  0  0  0  0  0  0  0  0
    3.5771    6.9725   -2.8054 C   0  0  0  0  0  0  0  0  0  0  0  0
    4.6162    5.8603   -2.9740 C   0  0  0  0  0  0  0  0  0  0  0  0
    5.9779    6.3583   -3.4683 C   0  0  0  0  0  0  0  0  0  0  0  0
    7.0142    5.2428   -3.6286 C   0  0  0  0  0  0  0  0  0  0  0  0
    8.3612    5.7542   -4.1142 C   0  0  0  0  0  0  0  0  0  0  0  0
    9.2474    4.6485   -4.2191 O   0  0  0  0  0  0  0  0  0  0  0  0
   10.5246    4.8369   -4.6173 C   0  0  0  0  0  0  0  0  0  0  0  0
   11.0769    6.0825   -4.9670 C   0  0  0  0  0  0  0  0  0  0  0  0
   12.4101    6.1657   -5.3629 C   0  0  0  0  0  0  0  0  0  0  0  0
   13.2359    5.0208   -5.4243 C   0  0  0  0  0  0  0  0  0  0  0  0
   14.5931    5.1166   -5.8232 C   0  0  0  0  0  0  0  0  0  0  0  0
   15.7692    5.2043   -6.1656 C   0  0  0  0  0  0  0  0  0  0  0  0
   17.1162    5.3136   -6.5549 C   0  0  0  0  0  0  0  0  0  0  0  0
   17.9494    4.1368   -6.5916 C   0  0  0  0  0  0  0  0  0  0  0  0
   17.4519    2.8729   -6.2560 C   0  0  0  0  0  0  0  0  0  0  0  0
   18.2485    1.7022   -6.2814 C   0  0  0  0  0  0  0  0  0  0  0  0
   17.7379    0.4231   -5.9417 C   0  0  0  0  0  0  0  0  0  0  0  0
   18.5504   -0.7012   -5.9785 C   0  0  0  0  0  0  0  0  0  0  0  0
   19.9069   -0.5861   -6.3572 C   0  0  0  0  0  0  0  0  0  0  0  0
   20.4360    0.6509   -6.6950 C   0  0  0  0  0  0  0  0  0  0  0  0
   19.6312    1.8198   -6.6675 C   0  0  0  0  0  0  0  0  0  0  0  0
   20.1334    3.0989   -7.0055 C   0  0  0  0  0  0  0  0  0  0  0  0
   19.3417    4.2552   -6.9826 C   0  0  0  0  0  0  0  0  0  0  0  0
   19.8754    5.5434   -7.3344 C   0  0  0  0  0  0  0  0  0  0  0  0
   21.2351    5.6598   -7.7054 C   0  0  0  0  0  0  0  0  0  0  0  0
   22.4185    5.7658   -8.0247 C   0  0  0  0  0  0  0  0  0  0  0  0
   24.2042    5.9532   -8.4723 Si  0  0  1  0  0  4  0  0  0  0  0  0
   25.0609    6.9172   -7.0480 C   0  0  1  0  0  0  0  0  0  0  0  0
   24.4828    8.3311   -6.8651 C   0  0  0  0  0  0  0  0  0  0  0  0
   25.0340    6.1414   -5.7191 C   0  0  0  0  0  0  0  0  0  0  0  0
   24.9377    4.1824   -8.5783 C   0  0  1  0  0  0  0  0  0  0  0  0
   24.2409    3.2707   -9.6030 C   0  0  0  0  0  0  0  0  0  0  0  0
   26.4656    4.1523   -8.7576 C   0  0  0  0  0  0  0  0  0  0  0  0
   24.2661    7.0028  -10.0820 C   0  0  1  0  0  0  0  0  0  0  0  0
   25.6907    7.3687  -10.5345 C   0  0  0  0  0  0  0  0  0  0  0  0
   23.4413    6.4280  -11.2459 C   0  0  0  0  0  0  0  0  0  0  0  0
   19.0447    6.7173   -7.3092 C   0  0  0  0  0  0  0  0  0  0  0  0
   19.5430    7.9800   -7.6577 C   0  0  0  0  0  0  0  0  0  0  0  0
   18.7476    9.1502   -7.6365 C   0  0  0  0  0  0  0  0  0  0  0  0
   19.2566   10.4273   -7.9899 C   0  0  0  0  0  0  0  0  0  0  0  0
   18.4451   11.5518   -7.9557 C   0  0  0  0  0  0  0  0  0  0  0  0
   17.0912   11.4414   -7.5661 C   0  0  0  0  0  0  0  0  0  0  0  0
   16.5642   10.2068   -7.2151 C   0  0  0  0  0  0  0  0  0  0  0  0
   17.3675    9.0378   -7.2401 C   0  0  0  0  0  0  0  0  0  0  0  0
   16.8662    7.7603   -6.8906 C   0  0  0  0  0  0  0  0  0  0  0  0
   17.6533    6.6037   -6.9134 C   0  0  0  0  0  0  0  0  0  0  0  0
   12.6592    3.7732   -5.0693 C   0  0  0  0  0  0  0  0  0  0  0  0
   11.3344    3.6844   -4.6754 C   0  0  0  0  0  0  0  0  0  0  0  0
   -0.9020    7.9165   -1.5314 H   0  0  0  0  0  0  0  0  0  0  0  0
   -0.0919    6.5931   -0.6622 H   0  0  0  0  0  0  0  0  0  0  0  0
   -0.6190    6.3595   -2.3429 H   0  0  0  0  0  0  0  0  0  0  0  0
    1.5692    8.3490   -1.4357 H   0  0  0  0  0  0  0  0  0  0  0  0
    1.0464    8.1168   -3.1018 H   0  0  0  0  0  0  0  0  0  0  0  0
    1.8236    5.7193   -3.0117 H   0  0  0  0  0  0  0  0  0  0  0  0
    2.3473    5.9521   -1.3451 H   0  0  0  0  0  0  0  0  0  0  0  0
    3.9675    7.7324   -2.1030 H   0  0  0  0  0  0  0  0  0  0  0  0
    3.4450    7.4978   -3.7698 H   0  0  0  0  0  0  0  0  0  0  0  0
    4.2291    5.1006   -3.6778 H   0  0  0  0  0  0  0  0  0  0  0  0
    4.7496    5.3346   -2.0105 H   0  0  0  0  0  0  0  0  0  0  0  0
    6.3624    7.1203   -2.7650 H   0  0  0  0  0  0  0  0  0  0  0  0
    5.8447    6.8810   -4.4337 H   0  0  0  0  0  0  0  0  0  0  0  0
    6.6493    4.4825   -4.3406 H   0  0  0  0  0  0  0  0  0  0  0  0
    7.1640    4.7213   -2.6676 H   0  0  0  0  0  0  0  0  0  0  0  0
    8.7714    6.5009   -3.4078 H   0  0  0  0  0  0  0  0  0  0  0  0
    8.2585    6.2509   -5.0978 H   0  0  0  0  0  0  0  0  0  0  0  0
   10.4759    6.9911   -4.9336 H   0  0  0  0  0  0  0  0  0  0  0  0
   12.8292    7.1377   -5.6313 H   0  0  0  0  0  0  0  0  0  0  0  0
   16.4045    2.7844   -5.9614 H   0  0  0  0  0  0  0  0  0  0  0  0
   16.6882    0.3351   -5.6485 H   0  0  0  0  0  0  0  0  0  0  0  0
   18.1416   -1.6795   -5.7142 H   0  0  0  0  0  0  0  0  0  0  0  0
   20.5401   -1.4764   -6.3839 H   0  0  0  0  0  0  0  0  0  0  0  0
   21.4853    0.7402   -6.9889 H   0  0  0  0  0  0  0  0  0  0  0  0
   21.1817    3.1889   -7.2964 H   0  0  0  0  0  0  0  0  0  0  0  0
   26.1188    7.0218   -7.3573 H   0  0  0  0  0  0  0  0  0  0  0  0
   23.4125    8.2932   -6.6013 H   0  0  0  0  0  0  0  0  0  0  0  0
   24.5800    8.9470   -7.7731 H   0  0  0  0  0  0  0  0  0  0  0  0
   25.0015    8.8665   -6.0505 H   0  0  0  0  0  0  0  0  0  0  0  0
   23.9994    5.9584   -5.3836 H   0  0  0  0  0  0  0  0  0  0  0  0
   25.5421    6.7105   -4.9208 H   0  0  0  0  0  0  0  0  0  0  0  0
   25.5356    5.1633   -5.7911 H   0  0  0  0  0  0  0  0  0  0  0  0
   24.7132    3.7720   -7.5752 H   0  0  0  0  0  0  0  0  0  0  0  0
   24.4733    3.5701  -10.6379 H   0  0  0  0  0  0  0  0  0  0  0  0
   23.1449    3.2846   -9.4942 H   0  0  0  0  0  0  0  0  0  0  0  0
   24.5760    2.2246   -9.4889 H   0  0  0  0  0  0  0  0  0  0  0  0
   26.7659    4.5473   -9.7417 H   0  0  0  0  0  0  0  0  0  0  0  0
   26.8482    3.1184   -8.6951 H   0  0  0  0  0  0  0  0  0  0  0  0
   26.9933    4.7425   -7.9913 H   0  0  0  0  0  0  0  0  0  0  0  0
   23.7685    7.9411   -9.7701 H   0  0  0  0  0  0  0  0  0  0  0  0
   26.2458    6.4838  -10.8868 H   0  0  0  0  0  0  0  0  0  0  0  0
   26.2854    7.8321   -9.7308 H   0  0  0  0  0  0  0  0  0  0  0  0
   25.6635    8.0849  -11.3745 H   0  0  0  0  0  0  0  0  0  0  0  0
   23.9017    5.5176  -11.6630 H   0  0  0  0  0  0  0  0  0  0  0  0
   23.3682    7.1578  -12.0715 H   0  0  0  0  0  0  0  0  0  0  0  0
   22.4163    6.1700  -10.9372 H   0  0  0  0  0  0  0  0  0  0  0  0
   20.5888    8.0636   -7.9593 H   0  0  0  0  0  0  0  0  0  0  0  0
   20.3042   10.5122   -8.2911 H   0  0  0  0  0  0  0  0  0  0  0  0
   18.8527   12.5278   -8.2306 H   0  0  0  0  0  0  0  0  0  0  0  0
   16.4589   12.3324   -7.5417 H   0  0  0  0  0  0  0  0  0  0  0  0
   15.5166   10.1205   -6.9135 H   0  0  0  0  0  0  0  0  0  0  0  0
   15.8200    7.6753   -6.5911 H   0  0  0  0  0  0  0  0  0  0  0  0
   13.2748    2.8723   -5.1083 H   0  0  0  0  0  0  0  0  0  0  0  0
   10.8884    2.7264   -4.4009 H   0  0  0  0  0  0  0  0  0  0  0  0
  1  2  1  0
  1 52  1  0
  1 53  1  0
  1 54  1  0
  2  3  1  0
  2 55  1  0
  2 56  1  0
  3  4  1  0
  3 57  1  0
  3 58  1  0
  4  5  1  0
  4 59  1  0
  4 60  1  0
  5  6  1  0
  5 61  1  0
  5 62  1  0
  6  7  1  0
  6 63  1  0
  6 64  1  0
  7  8  1  0
  7 65  1  0
  7 66  1  0
  8  9  1  0
  8 67  1  0
  8 68  1  0
  9 10  1  0
 10 11  2  0
 10 51  1  0
 11 12  1  0
 11 69  1  0
 12 13  2  0
 12 70  1  0
 13 14  1  0
 13 50  1  0
 14 15  3  0
 15 16  1  0
 16 17  1  0
 16 49  2  0
 17 18  2  0
 17 26  1  0
 18 19  1  0
 18 71  1  0
 19 20  2  0
 19 24  1  0
 20 21  1  0
 20 72  1  0
 21 22  2  0
 21 73  1  0
 22 23  1  0
 22 74  1  0
 23 24  2  0
 23 75  1  0
 24 25  1  0
 25 26  2  0
 25 76  1  0
 26 27  1  0
 27 28  1  0
 27 40  2  0
 28 29  3  0
 30 29  1  1
 30 31  1  0
 30 34  1  0
 30 37  1  0
 31 32  1  0
 31 33  1  0
 31 77  1  6
 32 78  1  0
 32 79  1  0
 32 80  1  0
 33 81  1  0
 33 82  1  0
 33 83  1  0
 34 35  1  0
 34 36  1  0
 34 84  1  1
 35 85  1  0
 35 86  1  0
 35 87  1  0
 36 88  1  0
 36 89  1  0
 36 90  1  0
 37 38  1  0
 37 39  1  0
 37 91  1  1
 38 92  1  0
 38 93  1  0
 38 94  1  0
 39 95  1  0
 39 96  1  0
 39 97  1  0
 40 41  1  0
 40 49  1  0
 41 42  2  0
 41 98  1  0
 42 43  1  0
 42 47  1  0
 43 44  2  0
 43 99  1  0
 44 45  1  0
 44100  1  0
 45 46  2  0
 45101  1  0
 46 47  1  0
 46102  1  0
 47 48  2  0
 48 49  1  0
 48103  1  0
 50 51  2  0
 50104  1  0
 51105  1  0
M  END

