
     RDKit          3D

273294  0  0  0  0  0  0  0  0999 V2000
    8.5427    5.9571   -3.2190 C   0  0  0  0  0  0  0  0  0  0  0  0
    9.7994    6.4250   -2.4472 C   0  0  1  0  0  0  0  0  0  0  0  0
   10.4324    5.2136   -1.7237 C   0  0  0  0  0  0  0  0  0  0  0  0
   10.8190    6.9547   -3.4715 C   0  0  0  0  0  0  0  0  0  0  0  0
    9.4038    7.4992   -1.4158 C   0  0  0  0  0  0  0  0  0  0  0  0
    8.4589    7.1845   -0.4054 C   0  0  0  0  0  0  0  0  0  0  0  0
    8.0412    8.1035    0.5540 C   0  0  0  0  0  0  0  0  0  0  0  0
    8.5858    9.3917    0.5126 C   0  0  0  0  0  0  0  0  0  0  0  0
    9.5318    9.7460   -0.4826 C   0  0  0  0  0  0  0  0  0  0  0  0
    9.9323    8.7950   -1.4350 C   0  0  0  0  0  0  0  0  0  0  0  0
    9.8720   11.1375   -0.2514 C   0  0  0  0  0  0  0  0  0  0  0  0
   10.7468   12.0362   -0.8830 C   0  0  0  0  0  0  0  0  0  0  0  0
   10.8739   13.3499   -0.4178 C   0  0  0  0  0  0  0  0  0  0  0  0
   11.8101   14.3860   -1.0751 C   0  0  1  0  0  0  0  0  0  0  0  0
   10.9687   15.5011   -1.7385 C   0  0  0  0  0  0  0  0  0  0  0  0
   12.7266   15.0081    0.0033 C   0  0  0  0  0  0  0  0  0  0  0  0
   12.7052   13.7595   -2.1594 C   0  0  0  0  0  0  0  0  0  0  0  0
   10.1059   13.7307    0.7118 C   0  0  0  0  0  0  0  0  0  0  0  0
    9.2356   12.8628    1.3666 C   0  0  0  0  0  0  0  0  0  0  0  0
    9.1158   11.5580    0.8730 C   0  0  0  0  0  0  0  0  0  0  0  0
    8.3400   10.4927    1.3326 N   0  0  0  0  0  0  0  0  0  0  0  0
    7.4321   10.5258    2.4274 C   0  0  0  0  0  0  0  0  0  0  0  0
    6.3425   11.4086    2.4294 C   0  0  0  0  0  0  0  0  0  0  0  0
    5.4445   11.4283    3.4948 C   0  0  0  0  0  0  0  0  0  0  0  0
    5.5886   10.5370    4.5777 C   0  0  0  0  0  0  0  0  0  0  0  0
    4.6331   10.5074    5.6182 N   0  0  0  0  0  0  0  0  0  0  0  0
    3.2623   10.7869    5.2850 C   0  0  0  0  0  0  0  0  0  0  0  0
    2.5725    9.9601    4.3875 C   0  0  0  0  0  0  0  0  0  0  0  0
    1.2554   10.2466    4.0301 C   0  0  0  0  0  0  0  0  0  0  0  0
    0.5627   11.3452    4.5797 C   0  0  0  0  0  0  0  0  0  0  0  0
   -0.8442   11.6363    4.2081 C   0  0  0  0  0  0  0  0  0  0  0  0
   -1.7188   10.6195    3.7787 C   0  0  0  0  0  0  0  0  0  0  0  0
   -3.0349   10.8935    3.4187 C   0  0  0  0  0  0  0  0  0  0  0  0
   -3.5796   12.2000    3.4842 C   0  0  0  0  0  0  0  0  0  0  0  0
   -4.9848   12.4596    3.1199 C   0  0  0  0  0  0  0  0  0  0  0  0
   -5.8433   11.4095    2.7385 C   0  0  0  0  0  0  0  0  0  0  0  0
   -7.1686   11.5950    2.3520 C   0  0  0  0  0  0  0  0  0  0  0  0
   -7.8057   12.8494    2.3243 C   0  0  0  0  0  0  0  0  0  0  0  0
   -9.2093   12.9802    1.9097 C   0  0  0  0  0  0  0  0  0  0  0  0
   -9.9714   11.8570    1.5063 C   0  0  0  0  0  0  0  0  0  0  0  0
  -11.2919   11.9747    1.0792 C   0  0  0  0  0  0  0  0  0  0  0  0
  -11.9429   13.2224    1.0394 C   0  0  0  0  0  0  0  0  0  0  0  0
  -13.3372   13.3571    0.5504 C   0  0  0  0  0  0  0  0  0  0  0  0
  -14.2958   12.3405    0.7502 C   0  0  0  0  0  0  0  0  0  0  0  0
  -15.5977   12.4581    0.2605 C   0  0  0  0  0  0  0  0  0  0  0  0
  -15.9761   13.6137   -0.4295 C   0  0  0  0  0  0  0  0  0  0  0  0
  -17.3302   13.7523   -0.9419 N   0  0  0  0  0  0  0  0  0  0  0  0
  -18.3799   13.8346    0.0057 C   0  0  0  0  0  0  0  0  0  0  0  0
  -18.2016   14.5830    1.1878 C   0  0  0  0  0  0  0  0  0  0  0  0
  -19.2108   14.6551    2.1379 C   0  0  0  0  0  0  0  0  0  0  0  0
  -20.4386   13.9894    1.9425 C   0  0  0  0  0  0  0  0  0  0  0  0
  -21.4663   14.0880    2.8918 N   0  0  0  0  0  0  0  0  0  0  0  0
  -21.9386   15.2800    3.4757 C   0  0  0  0  0  0  0  0  0  0  0  0
  -21.5828   16.6124    3.2355 C   0  0  0  0  0  0  0  0  0  0  0  0
  -22.2549   17.6075    3.9438 C   0  0  0  0  0  0  0  0  0  0  0  0
  -23.2812   17.3314    4.8797 C   0  0  0  0  0  0  0  0  0  0  0  0
  -23.9493   18.4935    5.6408 C   0  0  1  0  0  0  0  0  0  0  0  0
  -24.7352   19.3775    4.6444 C   0  0  0  0  0  0  0  0  0  0  0  0
  -24.9288   17.9905    6.7166 C   0  0  0  0  0  0  0  0  0  0  0  0
  -22.8696   19.3464    6.3465 C   0  0  0  0  0  0  0  0  0  0  0  0
  -23.6497   15.9930    5.0653 C   0  0  0  0  0  0  0  0  0  0  0  0
  -22.9914   14.9710    4.3674 C   0  0  0  0  0  0  0  0  0  0  0  0
  -23.1715   13.5294    4.3276 C   0  0  0  0  0  0  0  0  0  0  0  0
  -24.0434   12.6614    4.9992 C   0  0  0  0  0  0  0  0  0  0  0  0
  -23.9657   11.2776    4.7949 C   0  0  0  0  0  0  0  0  0  0  0  0
  -24.8932   10.2733    5.5084 C   0  0  1  0  0  0  0  0  0  0  0  0
  -25.4606    9.2648    4.4847 C   0  0  0  0  0  0  0  0  0  0  0  0
  -24.0878    9.5111    6.5879 C   0  0  0  0  0  0  0  0  0  0  0  0
  -26.0796   10.9706    6.1991 C   0  0  0  0  0  0  0  0  0  0  0  0
  -22.9758   10.8000    3.9027 C   0  0  0  0  0  0  0  0  0  0  0  0
  -22.1026   11.6394    3.2126 C   0  0  0  0  0  0  0  0  0  0  0  0
  -22.2202   13.0197    3.4140 C   0  0  0  0  0  0  0  0  0  0  0  0
  -20.6040   13.2157    0.7778 C   0  0  0  0  0  0  0  0  0  0  0  0
  -19.5872   13.1257   -0.1662 C   0  0  0  0  0  0  0  0  0  0  0  0
  -17.5159   13.8189   -2.3044 C   0  0  0  0  0  0  0  0  0  0  0  0
  -16.4975   13.3556   -3.1881 C   0  0  0  0  0  0  0  0  0  0  0  0
  -16.6413   13.4476   -4.5573 C   0  0  0  0  0  0  0  0  0  0  0  0
  -17.8045   14.0106   -5.1359 C   0  0  0  0  0  0  0  0  0  0  0  0
  -17.9265   14.1329   -6.5148 N   0  0  0  0  0  0  0  0  0  0  0  0
  -19.0855   13.8784   -7.2783 C   0  0  0  0  0  0  0  0  0  0  0  0
  -20.3204   13.3397   -6.8995 C   0  0  0  0  0  0  0  0  0  0  0  0
  -21.2814   13.1456   -7.8921 C   0  0  0  0  0  0  0  0  0  0  0  0
  -21.0565   13.4598   -9.2537 C   0  0  0  0  0  0  0  0  0  0  0  0
  -22.1865   13.2483  -10.2787 C   0  0  1  0  0  0  0  0  0  0  0  0
  -23.4313   14.0394   -9.8091 C   0  0  0  0  0  0  0  0  0  0  0  0
  -21.7950   13.7350  -11.6841 C   0  0  0  0  0  0  0  0  0  0  0  0
  -22.5381   11.7461  -10.3782 C   0  0  0  0  0  0  0  0  0  0  0  0
  -19.7938   13.9617   -9.6096 C   0  0  0  0  0  0  0  0  0  0  0  0
  -18.8119   14.1596   -8.6357 C   0  0  0  0  0  0  0  0  0  0  0  0
  -17.4261   14.6073   -8.7090 C   0  0  0  0  0  0  0  0  0  0  0  0
  -16.6336   15.0687   -9.7641 C   0  0  0  0  0  0  0  0  0  0  0  0
  -15.3238   15.5136   -9.5253 C   0  0  0  0  0  0  0  0  0  0  0  0
  -14.4114   16.0379  -10.6501 C   0  0  1  0  0  0  0  0  0  0  0  0
  -14.1362   17.5431  -10.4213 C   0  0  0  0  0  0  0  0  0  0  0  0
  -13.0745   15.2616  -10.6408 C   0  0  0  0  0  0  0  0  0  0  0  0
  -15.0580   15.8687  -12.0367 C   0  0  0  0  0  0  0  0  0  0  0  0
  -14.8562   15.5012   -8.1897 C   0  0  0  0  0  0  0  0  0  0  0  0
  -15.6289   15.0546   -7.1188 C   0  0  0  0  0  0  0  0  0  0  0  0
  -16.9130   14.5728   -7.3939 C   0  0  0  0  0  0  0  0  0  0  0  0
  -18.8248   14.4682   -4.2667 C   0  0  0  0  0  0  0  0  0  0  0  0
  -18.6859   14.3820   -2.8953 C   0  0  0  0  0  0  0  0  0  0  0  0
  -15.0558   14.6485   -0.6200 C   0  0  0  0  0  0  0  0  0  0  0  0
  -13.7511   14.5112   -0.1460 C   0  0  0  0  0  0  0  0  0  0  0  0
  -11.2024   14.3410    1.4645 C   0  0  0  0  0  0  0  0  0  0  0  0
   -9.8801   14.2284    1.8839 C   0  0  0  0  0  0  0  0  0  0  0  0
   -6.9930   13.9673    2.7286 C   0  0  0  0  0  0  0  0  0  0  0  0
   -7.3848   15.2433    2.7867 N   0  0  0  0  0  0  0  0  0  0  0  0
   -6.0745   16.1411    3.2601 S   0  0  0  0  0  0  0  0  0  0  0  0
   -4.9638   14.9216    3.4076 N   0  0  0  0  0  0  0  0  0  0  0  0
   -5.5775   13.7762    3.0980 C   0  0  0  0  0  0  0  0  0  0  0  0
   -2.6928   13.2176    3.9143 C   0  0  0  0  0  0  0  0  0  0  0  0
   -1.3704   12.9413    4.2547 C   0  0  0  0  0  0  0  0  0  0  0  0
    1.2693   12.1577    5.4914 C   0  0  0  0  0  0  0  0  0  0  0  0
    2.5988   11.8980    5.8242 C   0  0  0  0  0  0  0  0  0  0  0  0
    4.9923   10.3176    6.9662 C   0  0  0  0  0  0  0  0  0  0  0  0
    6.2746   10.6544    7.4485 C   0  0  0  0  0  0  0  0  0  0  0  0
    6.6032   10.4809    8.7919 C   0  0  0  0  0  0  0  0  0  0  0  0
    5.6562   10.0019    9.7075 C   0  0  0  0  0  0  0  0  0  0  0  0
    5.9796    9.8655   11.0864 N   0  0  0  0  0  0  0  0  0  0  0  0
    6.3823   10.8966   11.9374 C   0  0  0  0  0  0  0  0  0  0  0  0
    6.5568   12.2618   11.6779 C   0  0  0  0  0  0  0  0  0  0  0  0
    6.9527   13.0825   12.7311 C   0  0  0  0  0  0  0  0  0  0  0  0
    7.1834   12.5980   14.0448 C   0  0  0  0  0  0  0  0  0  0  0  0
    7.6000   13.5878   15.1536 C   0  0  1  0  0  0  0  0  0  0  0  0
    6.5777   14.7444   15.2242 C   0  0  0  0  0  0  0  0  0  0  0  0
    7.6535   12.9199   16.5409 C   0  0  0  0  0  0  0  0  0  0  0  0
    9.0028   14.1607   14.8450 C   0  0  0  0  0  0  0  0  0  0  0  0
    6.9885   11.2333   14.2802 C   0  0  0  0  0  0  0  0  0  0  0  0
    6.5906   10.3770   13.2406 C   0  0  0  0  0  0  0  0  0  0  0  0
    6.2959    8.9585   13.1721 C   0  0  0  0  0  0  0  0  0  0  0  0
    6.3191    7.9193   14.1164 C   0  0  0  0  0  0  0  0  0  0  0  0
    5.9753    6.6137   13.7488 C   0  0  0  0  0  0  0  0  0  0  0  0
    5.9809    5.4314   14.7424 C   0  0  1  0  0  0  0  0  0  0  0  0
    4.5523    4.8571   14.8872 C   0  0  0  0  0  0  0  0  0  0  0  0
    6.9257    4.3271   14.2155 C   0  0  0  0  0  0  0  0  0  0  0  0
    6.4615    5.8470   16.1452 C   0  0  0  0  0  0  0  0  0  0  0  0
    5.6283    6.3789   12.3932 C   0  0  0  0  0  0  0  0  0  0  0  0
    5.5972    7.3855   11.4315 C   0  0  0  0  0  0  0  0  0  0  0  0
    5.9214    8.6874   11.8310 C   0  0  0  0  0  0  0  0  0  0  0  0
    4.3762    9.6742    9.2374 C   0  0  0  0  0  0  0  0  0  0  0  0
    4.0528    9.8119    7.8897 C   0  0  0  0  0  0  0  0  0  0  0  0
    6.6747    9.6393    4.5591 C   0  0  0  0  0  0  0  0  0  0  0  0
    7.5950    9.6528    3.5130 C   0  0  0  0  0  0  0  0  0  0  0  0
    8.8042    5.1750   -3.9516 H   0  0  0  0  0  0  0  0  0  0  0  0
    8.0781    6.7949   -3.7626 H   0  0  0  0  0  0  0  0  0  0  0  0
    7.7818    5.5389   -2.5431 H   0  0  0  0  0  0  0  0  0  0  0  0
   10.6928    4.4235   -2.4482 H   0  0  0  0  0  0  0  0  0  0  0  0
    9.7460    4.7739   -0.9848 H   0  0  0  0  0  0  0  0  0  0  0  0
   11.3520    5.5077   -1.1928 H   0  0  0  0  0  0  0  0  0  0  0  0
   11.0753    6.1596   -4.1896 H   0  0  0  0  0  0  0  0  0  0  0  0
   11.7549    7.2785   -2.9899 H   0  0  0  0  0  0  0  0  0  0  0  0
   10.4188    7.8044   -4.0465 H   0  0  0  0  0  0  0  0  0  0  0  0
    8.0278    6.1811   -0.3631 H   0  0  0  0  0  0  0  0  0  0  0  0
    7.3102    7.8221    1.3143 H   0  0  0  0  0  0  0  0  0  0  0  0
   10.6621    9.0910   -2.1895 H   0  0  0  0  0  0  0  0  0  0  0  0
   11.3209   11.6920   -1.7435 H   0  0  0  0  0  0  0  0  0  0  0  0
   10.3181   16.0135   -1.0136 H   0  0  0  0  0  0  0  0  0  0  0  0
   10.3240   15.0884   -2.5307 H   0  0  0  0  0  0  0  0  0  0  0  0
   11.6230   16.2638   -2.1931 H   0  0  0  0  0  0  0  0  0  0  0  0
   12.1459   15.4969    0.8013 H   0  0  0  0  0  0  0  0  0  0  0  0
   13.3872   15.7706   -0.4423 H   0  0  0  0  0  0  0  0  0  0  0  0
   13.3610   14.2398    0.4731 H   0  0  0  0  0  0  0  0  0  0  0  0
   12.1115   13.3136   -2.9732 H   0  0  0  0  0  0  0  0  0  0  0  0
   13.3646   12.9789   -1.7489 H   0  0  0  0  0  0  0  0  0  0  0  0
   13.3493   14.5348   -2.6035 H   0  0  0  0  0  0  0  0  0  0  0  0
   10.1962   14.7488    1.0971 H   0  0  0  0  0  0  0  0  0  0  0  0
    8.6638   13.1958    2.2345 H   0  0  0  0  0  0  0  0  0  0  0  0
    6.1975   12.0832    1.5830 H   0  0  0  0  0  0  0  0  0  0  0  0
    4.6046   12.1230    3.4787 H   0  0  0  0  0  0  0  0  0  0  0  0
    3.0881    9.1045    3.9451 H   0  0  0  0  0  0  0  0  0  0  0  0
    0.7567    9.6081    3.2986 H   0  0  0  0  0  0  0  0  0  0  0  0
   -1.3679    9.5854    3.7284 H   0  0  0  0  0  0  0  0  0  0  0  0
   -3.6453   10.0583    3.0740 H   0  0  0  0  0  0  0  0  0  0  0  0
   -5.4778   10.3817    2.7417 H   0  0  0  0  0  0  0  0  0  0  0  0
   -7.7115   10.6970    2.0495 H   0  0  0  0  0  0  0  0  0  0  0  0
   -9.5406   10.8553    1.5116 H   0  0  0  0  0  0  0  0  0  0  0  0
  -11.8124   11.0721    0.7450 H   0  0  0  0  0  0  0  0  0  0  0  0
  -14.0207   11.4485    1.3137 H   0  0  0  0  0  0  0  0  0  0  0  0
  -16.3245   11.6589    0.4238 H   0  0  0  0  0  0  0  0  0  0  0  0
  -17.2535   15.0899    1.3670 H   0  0  0  0  0  0  0  0  0  0  0  0
  -19.0466   15.2209    3.0554 H   0  0  0  0  0  0  0  0  0  0  0  0
  -20.8084   16.8846    2.5180 H   0  0  0  0  0  0  0  0  0  0  0  0
  -21.9656   18.6442    3.7594 H   0  0  0  0  0  0  0  0  0  0  0  0
  -25.5068   18.7917    4.1195 H   0  0  0  0  0  0  0  0  0  0  0  0
  -24.0791   19.8219    3.8793 H   0  0  0  0  0  0  0  0  0  0  0  0
  -25.2367   20.2038    5.1742 H   0  0  0  0  0  0  0  0  0  0  0  0
  -25.7746   17.4346    6.2827 H   0  0  0  0  0  0  0  0  0  0  0  0
  -25.3504   18.8433    7.2710 H   0  0  0  0  0  0  0  0  0  0  0  0
  -24.4291   17.3365    7.4489 H   0  0  0  0  0  0  0  0  0  0  0  0
  -22.1636   19.8007    5.6347 H   0  0  0  0  0  0  0  0  0  0  0  0
  -22.2899   18.7380    7.0583 H   0  0  0  0  0  0  0  0  0  0  0  0
  -23.3422   20.1680    6.9086 H   0  0  0  0  0  0  0  0  0  0  0  0
  -24.4508   15.7250    5.7542 H   0  0  0  0  0  0  0  0  0  0  0  0
  -24.7729   13.0860    5.6882 H   0  0  0  0  0  0  0  0  0  0  0  0
  -24.6680    8.6667    4.0092 H   0  0  0  0  0  0  0  0  0  0  0  0
  -26.0195    9.7792    3.6867 H   0  0  0  0  0  0  0  0  0  0  0  0
  -26.1474    8.5613    4.9835 H   0  0  0  0  0  0  0  0  0  0  0  0
  -23.2443    8.9523    6.1541 H   0  0  0  0  0  0  0  0  0  0  0  0
  -24.7335    8.7886    7.1131 H   0  0  0  0  0  0  0  0  0  0  0  0
  -23.6751   10.2053    7.3370 H   0  0  0  0  0  0  0  0  0  0  0  0
  -26.6932   11.5407    5.4838 H   0  0  0  0  0  0  0  0  0  0  0  0
  -25.7502   11.6619    6.9905 H   0  0  0  0  0  0  0  0  0  0  0  0
  -26.7340   10.2198    6.6691 H   0  0  0  0  0  0  0  0  0  0  0  0
  -22.8779    9.7249    3.7416 H   0  0  0  0  0  0  0  0  0  0  0  0
  -21.3500   11.2140    2.5479 H   0  0  0  0  0  0  0  0  0  0  0  0
  -21.5370   12.6750    0.6169 H   0  0  0  0  0  0  0  0  0  0  0  0
  -19.7288   12.4950   -1.0444 H   0  0  0  0  0  0  0  0  0  0  0  0
  -15.6000   12.8991   -2.7738 H   0  0  0  0  0  0  0  0  0  0  0  0
  -15.8664   13.0309   -5.2018 H   0  0  0  0  0  0  0  0  0  0  0  0
  -20.5373   13.0489   -5.8714 H   0  0  0  0  0  0  0  0  0  0  0  0
  -22.2436   12.7251   -7.5910 H   0  0  0  0  0  0  0  0  0  0  0  0
  -23.2190   15.1193   -9.7579 H   0  0  0  0  0  0  0  0  0  0  0  0
  -23.7685   13.7158   -8.8125 H   0  0  0  0  0  0  0  0  0  0  0  0
  -24.2668   13.8890  -10.5122 H   0  0  0  0  0  0  0  0  0  0  0  0
  -21.6199   14.8214  -11.7108 H   0  0  0  0  0  0  0  0  0  0  0  0
  -22.6097   13.5191  -12.3925 H   0  0  0  0  0  0  0  0  0  0  0  0
  -20.8912   13.2265  -12.0543 H   0  0  0  0  0  0  0  0  0  0  0  0
  -22.8590   11.3264   -9.4137 H   0  0  0  0  0  0  0  0  0  0  0  0
  -21.6753   11.1585  -10.7312 H   0  0  0  0  0  0  0  0  0  0  0  0
  -23.3635   11.5969  -11.0922 H   0  0  0  0  0  0  0  0  0  0  0  0
  -19.5514   14.1748  -10.6504 H   0  0  0  0  0  0  0  0  0  0  0  0
  -17.0508   15.0858  -10.7705 H   0  0  0  0  0  0  0  0  0  0  0  0
  -13.6277   17.7304   -9.4640 H   0  0  0  0  0  0  0  0  0  0  0  0
  -15.0742   18.1208  -10.4207 H   0  0  0  0  0  0  0  0  0  0  0  0
  -13.4912   17.9386  -11.2224 H   0  0  0  0  0  0  0  0  0  0  0  0
  -12.5415   15.3651   -9.6833 H   0  0  0  0  0  0  0  0  0  0  0  0
  -12.4112   15.6457  -11.4312 H   0  0  0  0  0  0  0  0  0  0  0  0
  -13.2343   14.1872  -10.8250 H   0  0  0  0  0  0  0  0  0  0  0  0
  -15.9939   16.4428  -12.1308 H   0  0  0  0  0  0  0  0  0  0  0  0
  -15.2767   14.8138  -12.2642 H   0  0  0  0  0  0  0  0  0  0  0  0
  -14.3708   16.2366  -12.8140 H   0  0  0  0  0  0  0  0  0  0  0  0
  -13.8531   15.8693   -7.9696 H   0  0  0  0  0  0  0  0  0  0  0  0
  -15.2317   15.1095   -6.1054 H   0  0  0  0  0  0  0  0  0  0  0  0
  -19.6961   14.9756   -4.6824 H   0  0  0  0  0  0  0  0  0  0  0  0
  -19.4629   14.8030   -2.2579 H   0  0  0  0  0  0  0  0  0  0  0  0
  -15.3553   15.5530   -1.1550 H   0  0  0  0  0  0  0  0  0  0  0  0
  -13.0323   15.3100   -0.3317 H   0  0  0  0  0  0  0  0  0  0  0  0
  -11.6712   15.3290    1.4993 H   0  0  0  0  0  0  0  0  0  0  0  0
   -9.3274   15.1110    2.2021 H   0  0  0  0  0  0  0  0  0  0  0  0
   -3.0617   14.2397    3.9574 H   0  0  0  0  0  0  0  0  0  0  0  0
   -0.7219   13.7771    4.5299 H   0  0  0  0  0  0  0  0  0  0  0  0
    0.7692   13.0144    5.9461 H   0  0  0  0  0  0  0  0  0  0  0  0
    3.1267   12.5539    6.5204 H   0  0  0  0  0  0  0  0  0  0  0  0
    7.0222   11.0629    6.7677 H   0  0  0  0  0  0  0  0  0  0  0  0
    7.6061   10.7364    9.1400 H   0  0  0  0  0  0  0  0  0  0  0  0
    6.3849   12.6767   10.6833 H   0  0  0  0  0  0  0  0  0  0  0  0
    7.0802   14.1477   12.5251 H   0  0  0  0  0  0  0  0  0  0  0  0
    5.5741   14.3680   15.4788 H   0  0  0  0  0  0  0  0  0  0  0  0
    6.4971   15.2802   14.2658 H   0  0  0  0  0  0  0  0  0  0  0  0
    6.8739   15.4767   15.9936 H   0  0  0  0  0  0  0  0  0  0  0  0
    6.6649   12.5510   16.8554 H   0  0  0  0  0  0  0  0  0  0  0  0
    7.9862   13.6502   17.2957 H   0  0  0  0  0  0  0  0  0  0  0  0
    8.3581   12.0736   16.5649 H   0  0  0  0  0  0  0  0  0  0  0  0
    9.0234   14.7122   13.8933 H   0  0  0  0  0  0  0  0  0  0  0  0
    9.7497   13.3535   14.7790 H   0  0  0  0  0  0  0  0  0  0  0  0
    9.3215   14.8559   15.6398 H   0  0  0  0  0  0  0  0  0  0  0  0
    7.1396   10.8117   15.2741 H   0  0  0  0  0  0  0  0  0  0  0  0
    6.6025    8.1537   15.1425 H   0  0  0  0  0  0  0  0  0  0  0  0
    4.1519    4.4963   13.9288 H   0  0  0  0  0  0  0  0  0  0  0  0
    3.8590    5.6221   15.2716 H   0  0  0  0  0  0  0  0  0  0  0  0
    4.5452    4.0064   15.5893 H   0  0  0  0  0  0  0  0  0  0  0  0
    6.6065    3.9553   13.2287 H   0  0  0  0  0  0  0  0  0  0  0  0
    6.9466    3.4682   14.9075 H   0  0  0  0  0  0  0  0  0  0  0  0
    7.9547    4.7066   14.1110 H   0  0  0  0  0  0  0  0  0  0  0  0
    5.8349    6.6484   16.5681 H   0  0  0  0  0  0  0  0  0  0  0  0
    7.5049    6.1969   16.1393 H   0  0  0  0  0  0  0  0  0  0  0  0
    6.4078    4.9851   16.8288 H   0  0  0  0  0  0  0  0  0  0  0  0
    5.3760    5.3648   12.0737 H   0  0  0  0  0  0  0  0  0  0  0  0
    5.3242    7.1611   10.3988 H   0  0  0  0  0  0  0  0  0  0  0  0
    3.6243    9.3059    9.9383 H   0  0  0  0  0  0  0  0  0  0  0  0
    3.0542    9.5393    7.5482 H   0  0  0  0  0  0  0  0  0  0  0  0
    6.7953    8.9237    5.3744 H   0  0  0  0  0  0  0  0  0  0  0  0
    8.4319    8.9511    3.5154 H   0  0  0  0  0  0  0  0  0  0  0  0
  2  1  1  6
  1144  1  0
  1145  1  0
  1146  1  0
  2  3  1  0
  2  4  1  0
  2  5  1  0
  3147  1  0
  3148  1  0
  3149  1  0
  4150  1  0
  4151  1  0
  4152  1  0
  5  6  2  0
  5 10  1  0
  6  7  1  0
  6153  1  0
  7  8  2  0
  7154  1  0
  8  9  1  0
  8 21  1  0
  9 10  2  0
  9 11  1  0
 10155  1  0
 11 12  2  0
 11 20  1  0
 12 13  1  0
 12156  1  0
 13 14  1  0
 13 18  2  0
 14 15  1  6
 14 16  1  0
 14 17  1  0
 15157  1  0
 15158  1  0
 15159  1  0
 16160  1  0
 16161  1  0
 16162  1  0
 17163  1  0
 17164  1  0
 17165  1  0
 18 19  1  0
 18166  1  0
 19 20  2  0
 19167  1  0
 20 21  1  0
 21 22  1  0
 22 23  2  0
 22143  1  0
 23 24  1  0
 23168  1  0
 24 25  2  0
 24169  1  0
 25 26  1  0
 25142  1  0
 26 27  1  0
 26115  1  0
 27 28  2  0
 27114  1  0
 28 29  1  0
 28170  1  0
 29 30  2  0
 29171  1  0
 30 31  1  0
 30113  1  0
 31 32  2  0
 31112  1  0
 32 33  1  0
 32172  1  0
 33 34  2  0
 33173  1  0
 34 35  1  0
 34111  1  0
 35 36  2  0
 35110  1  0
 36 37  1  0
 36174  1  0
 37 38  2  0
 37175  1  0
 38 39  1  0
 38106  1  0
 39 40  2  0
 39105  1  0
 40 41  1  0
 40176  1  0
 41 42  2  0
 41177  1  0
 42 43  1  0
 42104  1  0
 43 44  2  0
 43103  1  0
 44 45  1  0
 44178  1  0
 45 46  2  0
 45179  1  0
 46 47  1  0
 46102  1  0
 47 48  1  0
 47 75  1  0
 48 49  2  0
 48 74  1  0
 49 50  1  0
 49180  1  0
 50 51  2  0
 50181  1  0
 51 52  1  0
 51 73  1  0
 52 53  1  0
 52 72  1  0
 53 54  2  0
 53 62  1  0
 54 55  1  0
 54182  1  0
 55 56  2  0
 55183  1  0
 56 57  1  0
 56 61  1  0
 57 58  1  6
 57 59  1  0
 57 60  1  0
 58184  1  0
 58185  1  0
 58186  1  0
 59187  1  0
 59188  1  0
 59189  1  0
 60190  1  0
 60191  1  0
 60192  1  0
 61 62  2  0
 61193  1  0
 62 63  1  0
 63 64  1  0
 63 72  2  0
 64 65  2  0
 64194  1  0
 65 66  1  0
 65 70  1  0
 66 67  1  6
 66 68  1  0
 66 69  1  0
 67195  1  0
 67196  1  0
 67197  1  0
 68198  1  0
 68199  1  0
 68200  1  0
 69201  1  0
 69202  1  0
 69203  1  0
 70 71  2  0
 70204  1  0
 71 72  1  0
 71205  1  0
 73 74  2  0
 73206  1  0
 74207  1  0
 75 76  2  0
 75101  1  0
 76 77  1  0
 76208  1  0
 77 78  2  0
 77209  1  0
 78 79  1  0
 78100  1  0
 79 80  1  0
 79 99  1  0
 80 81  2  0
 80 89  1  0
 81 82  1  0
 81210  1  0
 82 83  2  0
 82211  1  0
 83 84  1  0
 83 88  1  0
 84 85  1  6
 84 86  1  0
 84 87  1  0
 85212  1  0
 85213  1  0
 85214  1  0
 86215  1  0
 86216  1  0
 86217  1  0
 87218  1  0
 87219  1  0
 87220  1  0
 88 89  2  0
 88221  1  0
 89 90  1  0
 90 91  1  0
 90 99  2  0
 91 92  2  0
 91222  1  0
 92 93  1  0
 92 97  1  0
 93 94  1  6
 93 95  1  0
 93 96  1  0
 94223  1  0
 94224  1  0
 94225  1  0
 95226  1  0
 95227  1  0
 95228  1  0
 96229  1  0
 96230  1  0
 96231  1  0
 97 98  2  0
 97232  1  0
 98 99  1  0
 98233  1  0
100101  2  0
100234  1  0
101235  1  0
102103  2  0
102236  1  0
103237  1  0
104105  2  0
104238  1  0
105239  1  0
106107  2  0
106110  1  0
107108  1  0
108109  1  0
109110  2  0
111112  2  0
111240  1  0
112241  1  0
113114  2  0
113242  1  0
114243  1  0
115116  2  0
115141  1  0
116117  1  0
116244  1  0
117118  2  0
117245  1  0
118119  1  0
118140  1  0
119120  1  0
119139  1  0
120121  2  0
120129  1  0
121122  1  0
121246  1  0
122123  2  0
122247  1  0
123124  1  0
123128  1  0
124125  1  1
124126  1  0
124127  1  0
125248  1  0
125249  1  0
125250  1  0
126251  1  0
126252  1  0
126253  1  0
127254  1  0
127255  1  0
127256  1  0
128129  2  0
128257  1  0
129130  1  0
130131  1  0
130139  2  0
131132  2  0
131258  1  0
132133  1  0
132137  1  0
133134  1  1
133135  1  0
133136  1  0
134259  1  0
134260  1  0
134261  1  0
135262  1  0
135263  1  0
135264  1  0
136265  1  0
136266  1  0
136267  1  0
137138  2  0
137268  1  0
138139  1  0
138269  1  0
140141  2  0
140270  1  0
141271  1  0
142143  2  0
142272  1  0
143273  1  0
M  END

