
     RDKit          3D

 43 48  0  0  0  0  0  0  0  0999 V2000
   -1.2694    0.0754   -0.0231 C   0  0  0  0  0  0  0  0  0  0  0  0
   -0.6377    1.3052   -0.0374 C   0  0  0  0  0  0  0  0  0  0  0  0
    1.0845    1.1455   -0.0310 S   0  0  0  0  0  0  0  0  0  0  0  0
    0.9828   -0.6217   -0.0080 C   0  0  0  0  0  0  0  0  0  0  0  0
    2.1555   -1.4495    0.0061 C   0  0  0  0  0  0  0  0  0  0  0  0
    3.4722   -0.8796    0.0051 C   0  0  0  0  0  0  0  0  0  0  0  0
    4.6136   -1.6540    0.0196 C   0  0  0  0  0  0  0  0  0  0  0  0
    4.4937   -3.0723    0.0379 C   0  0  0  0  0  0  0  0  0  0  0  0
    5.4195   -4.1422    0.0554 C   0  0  0  0  0  0  0  0  0  0  0  0
    6.8412   -4.2274    0.0675 C   0  0  0  0  0  0  0  0  0  0  0  0
    7.4455   -5.4659    0.0939 C   0  0  0  0  0  0  0  0  0  0  0  0
    6.6908   -6.6891    0.1102 C   0  0  0  0  0  0  0  0  0  0  0  0
    7.3656   -7.9557    0.1381 C   0  0  0  0  0  0  0  0  0  0  0  0
    8.7433   -8.2368    0.1540 C   0  0  0  0  0  0  0  0  0  0  0  0
    9.0398   -9.6143    0.1782 C   0  0  0  0  0  0  0  0  0  0  0  0
    7.9109  -10.4149    0.1819 C   0  0  0  0  0  0  0  0  0  0  0  0
    6.4586   -9.4767    0.1555 S   0  0  0  0  0  0  0  0  0  0  0  0
    5.2597   -6.6112    0.0968 C   0  0  0  0  0  0  0  0  0  0  0  0
    4.6642   -5.3672    0.0675 C   0  0  0  0  0  0  0  0  0  0  0  0
    3.3005   -5.0413    0.0490 N   0  0  0  0  0  0  0  0  0  0  0  0
    2.2449   -5.9603    0.0822 C   0  0  0  0  0  0  0  0  0  0  0  0
    1.8123   -6.7852   -0.9293 C   0  0  0  0  0  0  0  0  0  0  0  0
    0.7286   -7.6239   -0.5338 C   0  0  0  0  0  0  0  0  0  0  0  0
    0.3477   -7.4202    0.7691 C   0  0  0  0  0  0  0  0  0  0  0  0
    1.3137   -6.2205    1.5506 S   0  0  0  0  0  0  0  0  0  0  0  0
    3.1724   -3.6445    0.0379 C   0  0  0  0  0  0  0  0  0  0  0  0
    2.0263   -2.8787    0.0210 C   0  0  0  0  0  0  0  0  0  0  0  0
   -0.3689   -1.0095   -0.0065 C   0  0  0  0  0  0  0  0  0  0  0  0
   -2.3552   -0.0356   -0.0245 H   0  0  0  0  0  0  0  0  0  0  0  0
   -1.0936    2.2944   -0.0514 H   0  0  0  0  0  0  0  0  0  0  0  0
    3.5728    0.2081   -0.0075 H   0  0  0  0  0  0  0  0  0  0  0  0
    5.5995   -1.1843    0.0173 H   0  0  0  0  0  0  0  0  0  0  0  0
    7.4467   -3.3184    0.0576 H   0  0  0  0  0  0  0  0  0  0  0  0
    8.5348   -5.5207    0.1028 H   0  0  0  0  0  0  0  0  0  0  0  0
    9.5072   -7.4596    0.1484 H   0  0  0  0  0  0  0  0  0  0  0  0
   10.0543  -10.0169    0.1928 H   0  0  0  0  0  0  0  0  0  0  0  0
    7.8587  -11.5027    0.1994 H   0  0  0  0  0  0  0  0  0  0  0  0
    4.6496   -7.5153    0.1091 H   0  0  0  0  0  0  0  0  0  0  0  0
    2.2636   -6.7791   -1.9222 H   0  0  0  0  0  0  0  0  0  0  0  0
    0.2425   -8.3422   -1.1954 H   0  0  0  0  0  0  0  0  0  0  0  0
   -0.4590   -7.9083    1.3148 H   0  0  0  0  0  0  0  0  0  0  0  0
    1.0453   -3.3515    0.0229 H   0  0  0  0  0  0  0  0  0  0  0  0
   -0.6862   -2.0521    0.0077 H   0  0  0  0  0  0  0  0  0  0  0  0
  1  2  2  0
  1 28  1  0
  1 29  1  0
  2  3  1  0
  2 30  1  0
  3  4  1  0
  4  5  1  0
  4 28  2  0
  5  6  2  0
  5 27  1  0
  6  7  1  0
  6 31  1  0
  7  8  2  0
  7 32  1  0
  8  9  1  0
  8 26  1  0
  9 10  2  0
  9 19  1  0
 10 11  1  0
 10 33  1  0
 11 12  2  0
 11 34  1  0
 12 13  1  0
 12 18  1  0
 13 14  2  0
 13 17  1  0
 14 15  1  0
 14 35  1  0
 15 16  2  0
 15 36  1  0
 16 17  1  0
 16 37  1  0
 18 19  2  0
 18 38  1  0
 19 20  1  0
 20 21  1  0
 20 26  1  0
 21 22  2  0
 21 25  1  0
 22 23  1  0
 22 39  1  0
 23 24  2  0
 23 40  1  0
 24 25  1  0
 24 41  1  0
 26 27  2  0
 27 42  1  0
 28 43  1  0
M  END

