
     RDKit          3D

 80 89  0  0  0  0  0  0  0  0999 V2000
    0.0618   -2.7050   -2.7864 C   0  0  0  0  0  0  0  0  0  0  0  0
    0.0353   -1.3538   -3.1478 C   0  0  0  0  0  0  0  0  0  0  0  0
    0.0123   -0.3636   -2.1627 C   0  0  0  0  0  0  0  0  0  0  0  0
    0.0158   -0.7207   -0.8066 C   0  0  0  0  0  0  0  0  0  0  0  0
   -0.0047    0.2858    0.1975 N   0  0  0  0  0  0  0  0  0  0  0  0
   -1.1378    0.8798    0.7882 C   0  0  0  0  0  0  0  0  0  0  0  0
   -2.5299    0.6436    0.5524 C   0  0  0  0  0  0  0  0  0  0  0  0
   -3.0946   -0.2955   -0.3785 C   0  0  0  0  0  0  0  0  0  0  0  0
   -4.4646   -0.4397   -0.5220 C   0  0  0  0  0  0  0  0  0  0  0  0
   -5.3509    0.3386    0.2492 C   0  0  0  0  0  0  0  0  0  0  0  0
   -6.7896    0.1845    0.0956 N   0  0  0  0  0  0  0  0  0  0  0  0
   -7.4825    0.9547   -0.8208 C   0  0  0  0  0  0  0  0  0  0  0  0
   -6.8413    1.9120   -1.6409 C   0  0  0  0  0  0  0  0  0  0  0  0
   -7.5812    2.6576   -2.5429 C   0  0  0  0  0  0  0  0  0  0  0  0
   -8.9757    2.4805   -2.6632 C   0  0  0  0  0  0  0  0  0  0  0  0
   -9.6302    1.5475   -1.8695 C   0  0  0  0  0  0  0  0  0  0  0  0
   -8.8899    0.7928   -0.9566 C   0  0  0  0  0  0  0  0  0  0  0  0
   -9.5598   -0.1080   -0.1958 O   0  0  0  0  0  0  0  0  0  0  0  0
   -8.8905   -0.8630    0.7104 C   0  0  0  0  0  0  0  0  0  0  0  0
   -9.6313   -1.7706    1.4708 C   0  0  0  0  0  0  0  0  0  0  0  0
   -8.9773   -2.5582    2.4094 C   0  0  0  0  0  0  0  0  0  0  0  0
   -7.5829   -2.4370    2.5863 C   0  0  0  0  0  0  0  0  0  0  0  0
   -6.8425   -1.5402    1.8349 C   0  0  0  0  0  0  0  0  0  0  0  0
   -7.4831   -0.7264    0.8719 C   0  0  0  0  0  0  0  0  0  0  0  0
   -4.8314    1.2757    1.1788 C   0  0  0  0  0  0  0  0  0  0  0  0
   -3.4699    1.4206    1.3229 C   0  0  0  0  0  0  0  0  0  0  0  0
   -0.6995    1.7811    1.6896 N   0  0  0  0  0  0  0  0  0  0  0  0
    0.6238    1.7880    1.7007 N   0  0  0  0  0  0  0  0  0  0  0  0
    1.0949    0.9057    0.8203 C   0  0  0  0  0  0  0  0  0  0  0  0
    2.5175    0.6963    0.6117 C   0  0  0  0  0  0  0  0  0  0  0  0
    3.0935   -0.2137   -0.3116 C   0  0  0  0  0  0  0  0  0  0  0  0
    4.4772   -0.3366   -0.4338 C   0  0  0  0  0  0  0  0  0  0  0  0
    5.3434    0.4342    0.3502 C   0  0  0  0  0  0  0  0  0  0  0  0
    6.7643    0.3004    0.2169 N   0  0  0  0  0  0  0  0  0  0  0  0
    7.4700   -0.6250    1.0052 C   0  0  0  0  0  0  0  0  0  0  0  0
    6.8451   -1.4458    1.9554 C   0  0  0  0  0  0  0  0  0  0  0  0
    7.5854   -2.3571    2.7197 C   0  0  0  0  0  0  0  0  0  0  0  0
    8.9638   -2.4660    2.5495 C   0  0  0  0  0  0  0  0  0  0  0  0
    9.6026   -1.6521    1.6044 C   0  0  0  0  0  0  0  0  0  0  0  0
    8.8688   -0.7473    0.8454 C   0  0  0  0  0  0  0  0  0  0  0  0
    9.5592    0.0182   -0.0646 O   0  0  0  0  0  0  0  0  0  0  0  0
    8.8706    0.9353   -0.8232 C   0  0  0  0  0  0  0  0  0  0  0  0
    9.6062    1.7011   -1.7208 C   0  0  0  0  0  0  0  0  0  0  0  0
    8.9694    2.6539   -2.5273 C   0  0  0  0  0  0  0  0  0  0  0  0
    7.5911    2.8250   -2.4180 C   0  0  0  0  0  0  0  0  0  0  0  0
    6.8490    2.0541   -1.5139 C   0  0  0  0  0  0  0  0  0  0  0  0
    7.4719    1.0958   -0.7009 C   0  0  0  0  0  0  0  0  0  0  0  0
    4.7884    1.3432    1.2718 C   0  0  0  0  0  0  0  0  0  0  0  0
    3.4142    1.4716    1.4001 C   0  0  0  0  0  0  0  0  0  0  0  0
    0.0413   -2.0756   -0.4461 C   0  0  0  0  0  0  0  0  0  0  0  0
    0.0647   -3.0629   -1.4340 C   0  0  0  0  0  0  0  0  0  0  0  0
    0.0842   -3.4785   -3.5582 H   0  0  0  0  0  0  0  0  0  0  0  0
    0.0375   -1.0688   -4.2030 H   0  0  0  0  0  0  0  0  0  0  0  0
   -0.0036    0.6948   -2.4303 H   0  0  0  0  0  0  0  0  0  0  0  0
   -2.4515   -0.9186   -0.9951 H   0  0  0  0  0  0  0  0  0  0  0  0
   -4.8556   -1.1652   -1.2409 H   0  0  0  0  0  0  0  0  0  0  0  0
   -5.7659    2.0428   -1.5409 H   0  0  0  0  0  0  0  0  0  0  0  0
   -7.0744    3.3941   -3.1690 H   0  0  0  0  0  0  0  0  0  0  0  0
   -9.5431    3.0771   -3.3797 H   0  0  0  0  0  0  0  0  0  0  0  0
  -10.7066    1.3819   -1.9322 H   0  0  0  0  0  0  0  0  0  0  0  0
  -10.7077   -1.8341    1.3052 H   0  0  0  0  0  0  0  0  0  0  0  0
   -9.5452   -3.2706    3.0105 H   0  0  0  0  0  0  0  0  0  0  0  0
   -7.0766   -3.0584    3.3271 H   0  0  0  0  0  0  0  0  0  0  0  0
   -5.7670   -1.4397    1.9654 H   0  0  0  0  0  0  0  0  0  0  0  0
   -5.5103    1.8845    1.7823 H   0  0  0  0  0  0  0  0  0  0  0  0
   -3.0635    2.1385    2.0354 H   0  0  0  0  0  0  0  0  0  0  0  0
    2.4666   -0.8357   -0.9455 H   0  0  0  0  0  0  0  0  0  0  0  0
    4.8977   -1.0446   -1.1523 H   0  0  0  0  0  0  0  0  0  0  0  0
    5.7669   -1.3648    2.0938 H   0  0  0  0  0  0  0  0  0  0  0  0
    7.0679   -2.9815    3.4522 H   0  0  0  0  0  0  0  0  0  0  0  0
    9.5469   -3.1744    3.1423 H   0  0  0  0  0  0  0  0  0  0  0  0
   10.6805   -1.7029    1.4372 H   0  0  0  0  0  0  0  0  0  0  0  0
   10.6840    1.5330   -1.7721 H   0  0  0  0  0  0  0  0  0  0  0  0
    9.5538    3.2519   -3.2301 H   0  0  0  0  0  0  0  0  0  0  0  0
    7.0751    3.5636   -3.0365 H   0  0  0  0  0  0  0  0  0  0  0  0
    5.7710    2.1932   -1.4326 H   0  0  0  0  0  0  0  0  0  0  0  0
    5.4555    1.9500    1.8890 H   0  0  0  0  0  0  0  0  0  0  0  0
    2.9860    2.1758    2.1139 H   0  0  0  0  0  0  0  0  0  0  0  0
    0.0473   -2.3404    0.6131 H   0  0  0  0  0  0  0  0  0  0  0  0
    0.0896   -4.1171   -1.1464 H   0  0  0  0  0  0  0  0  0  0  0  0
  1  2  2  0
  1 51  1  0
  1 52  1  0
  2  3  1  0
  2 53  1  0
  3  4  2  0
  3 54  1  0
  4  5  1  0
  4 50  1  0
  5  6  1  0
  5 29  1  0
  6  7  1  0
  6 27  2  0
  7  8  2  0
  7 26  1  0
  8  9  1  0
  8 55  1  0
  9 10  2  0
  9 56  1  0
 10 11  1  0
 10 25  1  0
 11 12  1  0
 11 24  1  0
 12 13  2  0
 12 17  1  0
 13 14  1  0
 13 57  1  0
 14 15  2  0
 14 58  1  0
 15 16  1  0
 15 59  1  0
 16 17  2  0
 16 60  1  0
 17 18  1  0
 18 19  1  0
 19 20  2  0
 19 24  1  0
 20 21  1  0
 20 61  1  0
 21 22  2  0
 21 62  1  0
 22 23  1  0
 22 63  1  0
 23 24  2  0
 23 64  1  0
 25 26  2  0
 25 65  1  0
 26 66  1  0
 27 28  1  0
 28 29  2  0
 29 30  1  0
 30 31  2  0
 30 49  1  0
 31 32  1  0
 31 67  1  0
 32 33  2  0
 32 68  1  0
 33 34  1  0
 33 48  1  0
 34 35  1  0
 34 47  1  0
 35 36  2  0
 35 40  1  0
 36 37  1  0
 36 69  1  0
 37 38  2  0
 37 70  1  0
 38 39  1  0
 38 71  1  0
 39 40  2  0
 39 72  1  0
 40 41  1  0
 41 42  1  0
 42 43  2  0
 42 47  1  0
 43 44  1  0
 43 73  1  0
 44 45  2  0
 44 74  1  0
 45 46  1  0
 45 75  1  0
 46 47  2  0
 46 76  1  0
 48 49  2  0
 48 77  1  0
 49 78  1  0
 50 51  2  0
 50 79  1  0
 51 80  1  0
M  END

