
     RDKit          3D

 55 60  0  0  0  0  0  0  0  0999 V2000
   -0.6200   -5.5826   -0.7556 N   0  0  0  0  0  0  0  0  0  0  0  0
   -0.4853   -4.4400   -0.6003 C   0  0  0  0  0  0  0  0  0  0  0  0
   -0.3191   -3.0240   -0.4091 C   0  0  0  0  0  0  0  0  0  0  0  0
   -1.4529   -2.2126   -0.2544 C   0  0  0  0  0  0  0  0  0  0  0  0
   -1.3106   -0.8242   -0.0718 C   0  0  0  0  0  0  0  0  0  0  0  0
   -2.4409    0.0003    0.0770 N   0  0  0  0  0  0  0  0  0  0  0  0
   -2.3889    1.1634    0.9009 C   0  0  0  0  0  0  0  0  0  0  0  0
   -2.8909    2.3874    0.4278 C   0  0  0  0  0  0  0  0  0  0  0  0
   -2.8542    3.5232    1.2388 C   0  0  0  0  0  0  0  0  0  0  0  0
   -2.3050    3.4602    2.5233 C   0  0  0  0  0  0  0  0  0  0  0  0
   -1.8018    2.2439    2.9960 C   0  0  0  0  0  0  0  0  0  0  0  0
   -1.8507    1.0996    2.1977 C   0  0  0  0  0  0  0  0  0  0  0  0
   -3.6608   -0.3140   -0.5917 C   0  0  0  0  0  0  0  0  0  0  0  0
   -3.6631   -0.6601   -1.9543 C   0  0  0  0  0  0  0  0  0  0  0  0
   -4.8618   -0.9662   -2.6009 C   0  0  0  0  0  0  0  0  0  0  0  0
   -6.0752   -0.9127   -1.9075 C   0  0  0  0  0  0  0  0  0  0  0  0
   -6.0776   -0.5557   -0.5556 C   0  0  0  0  0  0  0  0  0  0  0  0
   -4.8813   -0.2648    0.1030 C   0  0  0  0  0  0  0  0  0  0  0  0
   -0.0105   -0.2819   -0.0250 C   0  0  0  0  0  0  0  0  0  0  0  0
    1.1183   -1.0970   -0.1746 C   0  0  0  0  0  0  0  0  0  0  0  0
    2.4135   -0.5204   -0.1396 N   0  0  0  0  0  0  0  0  0  0  0  0
    3.4553   -0.9042    0.7138 C   0  0  0  0  0  0  0  0  0  0  0  0
    3.4709   -1.8755    1.7230 C   0  0  0  0  0  0  0  0  0  0  0  0
    4.6518   -2.0435    2.4476 C   0  0  0  0  0  0  0  0  0  0  0  0
    5.7927   -1.2631    2.1827 C   0  0  0  0  0  0  0  0  0  0  0  0
    5.7686   -0.2887    1.1859 C   0  0  0  0  0  0  0  0  0  0  0  0
    4.5944   -0.0993    0.4430 C   0  0  0  0  0  0  0  0  0  0  0  0
    4.2224    0.8081   -0.6256 C   0  0  0  0  0  0  0  0  0  0  0  0
    4.9094    1.8105   -1.3254 C   0  0  0  0  0  0  0  0  0  0  0  0
    4.2519    2.5028   -2.3412 C   0  0  0  0  0  0  0  0  0  0  0  0
    2.9178    2.1964   -2.6678 C   0  0  0  0  0  0  0  0  0  0  0  0
    2.2112    1.2041   -1.9864 C   0  0  0  0  0  0  0  0  0  0  0  0
    2.8712    0.5200   -0.9578 C   0  0  0  0  0  0  0  0  0  0  0  0
    0.9741   -2.4753   -0.3776 C   0  0  0  0  0  0  0  0  0  0  0  0
   -2.4441   -2.6644   -0.2730 H   0  0  0  0  0  0  0  0  0  0  0  0
   -3.3097    2.4420   -0.5791 H   0  0  0  0  0  0  0  0  0  0  0  0
   -3.2479    4.4687    0.8570 H   0  0  0  0  0  0  0  0  0  0  0  0
   -2.2707    4.3524    3.1527 H   0  0  0  0  0  0  0  0  0  0  0  0
   -1.3786    2.1795    4.0016 H   0  0  0  0  0  0  0  0  0  0  0  0
   -1.4710    0.1487    2.5774 H   0  0  0  0  0  0  0  0  0  0  0  0
   -2.7208   -0.6889   -2.5051 H   0  0  0  0  0  0  0  0  0  0  0  0
   -4.8467   -1.2366   -3.6598 H   0  0  0  0  0  0  0  0  0  0  0  0
   -7.0123   -1.1470   -2.4178 H   0  0  0  0  0  0  0  0  0  0  0  0
   -7.0190   -0.5142   -0.0018 H   0  0  0  0  0  0  0  0  0  0  0  0
   -4.8863    0.0036    1.1612 H   0  0  0  0  0  0  0  0  0  0  0  0
    0.1262    0.7873    0.1347 H   0  0  0  0  0  0  0  0  0  0  0  0
    2.5910   -2.4821    1.9424 H   0  0  0  0  0  0  0  0  0  0  0  0
    4.6874   -2.7974    3.2381 H   0  0  0  0  0  0  0  0  0  0  0  0
    6.7019   -1.4216    2.7673 H   0  0  0  0  0  0  0  0  0  0  0  0
    6.6525    0.3225    0.9869 H   0  0  0  0  0  0  0  0  0  0  0  0
    5.9488    2.0420   -1.0794 H   0  0  0  0  0  0  0  0  0  0  0  0
    4.7758    3.2865   -2.8936 H   0  0  0  0  0  0  0  0  0  0  0  0
    2.4222    2.7439   -3.4736 H   0  0  0  0  0  0  0  0  0  0  0  0
    1.1801    0.9698   -2.2546 H   0  0  0  0  0  0  0  0  0  0  0  0
    1.8490   -3.1090   -0.5201 H   0  0  0  0  0  0  0  0  0  0  0  0
  1  2  3  0
  2  3  1  0
  3  4  2  0
  3 34  1  0
  4  5  1  0
  4 35  1  0
  5  6  1  0
  5 19  2  0
  6  7  1  0
  6 13  1  0
  7  8  2  0
  7 12  1  0
  8  9  1  0
  8 36  1  0
  9 10  2  0
  9 37  1  0
 10 11  1  0
 10 38  1  0
 11 12  2  0
 11 39  1  0
 12 40  1  0
 13 14  2  0
 13 18  1  0
 14 15  1  0
 14 41  1  0
 15 16  2  0
 15 42  1  0
 16 17  1  0
 16 43  1  0
 17 18  2  0
 17 44  1  0
 18 45  1  0
 19 20  1  0
 19 46  1  0
 20 21  1  0
 20 34  2  0
 21 22  1  0
 21 33  1  0
 22 23  2  0
 22 27  1  0
 23 24  1  0
 23 47  1  0
 24 25  2  0
 24 48  1  0
 25 26  1  0
 25 49  1  0
 26 27  2  0
 26 50  1  0
 27 28  1  0
 28 29  1  0
 28 33  2  0
 29 30  2  0
 29 51  1  0
 30 31  1  0
 30 52  1  0
 31 32  2  0
 31 53  1  0
 32 33  1  0
 32 54  1  0
 34 55  1  0
M  END

