
     RDKit          3D

 41 43  0  0  0  0  0  0  0  0999 V2000
    0.9620    1.4247   -0.7894 C   0  0  0  0  0  0  0  0  0  0  0  0
    1.6892    0.4455   -0.0728 O   0  0  0  0  0  0  0  0  0  0  0  0
    2.5617    0.8235    0.8842 C   0  0  0  0  0  0  0  0  0  0  0  0
    2.8459    2.1580    1.2234 C   0  0  0  0  0  0  0  0  0  0  0  0
    3.7348    2.4597    2.2510 C   0  0  0  0  0  0  0  0  0  0  0  0
    4.3791    1.4389    2.9853 C   0  0  0  0  0  0  0  0  0  0  0  0
    5.2973    1.7261    4.0622 C   0  0  0  0  0  0  0  0  0  0  0  0
    6.0530    0.8125    4.8459 C   0  0  0  0  0  0  0  0  0  0  0  0
    6.8300    1.5400    5.8176 C   0  0  0  0  0  0  0  0  0  0  0  0
    7.7520    1.1222    6.7788 C   0  0  0  0  0  0  0  0  0  0  0  0
    8.0869   -0.1851    7.2493 C   0  0  0  0  0  0  0  0  0  0  0  0
    7.3211   -1.3640    6.9902 C   0  0  0  0  0  0  0  0  0  0  0  0
    7.7246   -2.6036    7.4537 C   0  0  0  0  0  0  0  0  0  0  0  0
    8.9120   -2.7424    8.2130 C   0  0  0  0  0  0  0  0  0  0  0  0
    9.3259   -4.0247    8.6843 C   0  0  0  0  0  0  0  0  0  0  0  0
    9.6630   -5.0721    9.0660 N   0  0  0  0  0  0  0  0  0  0  0  0
    9.6687   -1.5805    8.5107 C   0  0  0  0  0  0  0  0  0  0  0  0
    9.2603   -0.3436    8.0485 C   0  0  0  0  0  0  0  0  0  0  0  0
    6.5594    2.9586    5.5893 C   0  0  0  0  0  0  0  0  0  0  0  0
    6.9854    3.9696    6.1225 O   0  0  0  0  0  0  0  0  0  0  0  0
    5.6101    2.9728    4.5158 N   0  0  0  0  0  0  0  0  0  0  0  0
    4.0961    0.0965    2.6216 C   0  0  0  0  0  0  0  0  0  0  0  0
    3.2145   -0.2213    1.5987 C   0  0  0  0  0  0  0  0  0  0  0  0
    2.9435   -1.5318    1.3570 O   0  0  0  0  0  0  0  0  0  0  0  0
    3.2958   -2.0667    0.0860 C   0  0  0  0  0  0  0  0  0  0  0  0
    0.3105    0.8794   -1.4843 H   0  0  0  0  0  0  0  0  0  0  0  0
    1.6302    2.0877   -1.3668 H   0  0  0  0  0  0  0  0  0  0  0  0
    0.3381    2.0379   -0.1162 H   0  0  0  0  0  0  0  0  0  0  0  0
    2.3628    2.9741    0.6862 H   0  0  0  0  0  0  0  0  0  0  0  0
    3.9226    3.5120    2.4751 H   0  0  0  0  0  0  0  0  0  0  0  0
    6.0826   -0.2580    4.6682 H   0  0  0  0  0  0  0  0  0  0  0  0
    8.3071    1.9523    7.2316 H   0  0  0  0  0  0  0  0  0  0  0  0
    6.3731   -1.2903    6.4574 H   0  0  0  0  0  0  0  0  0  0  0  0
    7.1171   -3.4879    7.2493 H   0  0  0  0  0  0  0  0  0  0  0  0
   10.5769   -1.6718    9.1101 H   0  0  0  0  0  0  0  0  0  0  0  0
    9.8573    0.5417    8.2827 H   0  0  0  0  0  0  0  0  0  0  0  0
    5.2251    3.8468    4.1754 H   0  0  0  0  0  0  0  0  0  0  0  0
    4.5532   -0.7419    3.1481 H   0  0  0  0  0  0  0  0  0  0  0  0
    3.0691   -3.1408    0.1282 H   0  0  0  0  0  0  0  0  0  0  0  0
    4.3751   -1.9370   -0.1116 H   0  0  0  0  0  0  0  0  0  0  0  0
    2.7174   -1.6049   -0.7285 H   0  0  0  0  0  0  0  0  0  0  0  0
  1  2  1  0
  1 26  1  0
  1 27  1  0
  1 28  1  0
  2  3  1  0
  3  4  2  0
  3 23  1  0
  4  5  1  0
  4 29  1  0
  5  6  2  0
  5 30  1  0
  6  7  1  0
  6 22  1  0
  7  8  2  0
  7 21  1  0
  8  9  1  0
  8 31  1  0
  9 10  2  0
  9 19  1  0
 10 11  1  0
 10 32  1  0
 11 12  2  0
 11 18  1  0
 12 13  1  0
 12 33  1  0
 13 14  2  0
 13 34  1  0
 14 15  1  0
 14 17  1  0
 15 16  3  0
 17 18  2  0
 17 35  1  0
 18 36  1  0
 19 20  2  0
 19 21  1  0
 21 37  1  0
 22 23  2  0
 22 38  1  0
 23 24  1  0
 24 25  1  0
 25 39  1  0
 25 40  1  0
 25 41  1  0
M  END

