
     RDKit          3D

 94102  0  0  0  0  0  0  0  0999 V2000
    1.4644    1.5828    1.7715 N   0  0  0  0  0  0  0  0  0  0  0  0
    2.4977    1.0819    1.5997 C   0  0  0  0  0  0  0  0  0  0  0  0
    3.7803    0.4698    1.3852 C   0  0  0  0  0  0  0  0  0  0  0  0
    3.9309   -0.8558    1.9116 C   0  0  0  0  0  0  0  0  0  0  0  0
    4.0485   -1.9291    2.3399 N   0  0  0  0  0  0  0  0  0  0  0  0
    4.7525    1.1651    0.7146 C   0  0  0  0  0  0  0  0  0  0  0  0
    6.1168    0.8102    0.3573 C   0  0  0  0  0  0  0  0  0  0  0  0
    6.8702    1.8029   -0.3414 C   0  0  0  0  0  0  0  0  0  0  0  0
    8.1770    1.5925   -0.7365 C   0  0  0  0  0  0  0  0  0  0  0  0
    8.7891    0.3555   -0.4422 C   0  0  0  0  0  0  0  0  0  0  0  0
   10.0669    0.0085   -0.7704 N   0  0  0  0  0  0  0  0  0  0  0  0
   10.3464   -1.2045   -0.3655 C   0  0  0  0  0  0  0  0  0  0  0  0
   11.5848   -1.8517   -0.5547 C   0  0  0  0  0  0  0  0  0  0  0  0
   12.6510   -2.4319   -0.7095 C   0  0  0  0  0  0  0  0  0  0  0  0
   13.8911   -3.0804   -0.8999 C   0  0  0  0  0  0  0  0  0  0  0  0
   14.9454   -2.4310   -1.5936 C   0  0  0  0  0  0  0  0  0  0  0  0
   16.1630   -3.0580   -1.7794 C   0  0  0  0  0  0  0  0  0  0  0  0
   16.3846   -4.3693   -1.2801 C   0  0  0  0  0  0  0  0  0  0  0  0
   17.5996   -5.0242   -1.4789 N   0  0  0  0  0  0  0  0  0  0  0  0
   18.8184   -4.3514   -1.5549 C   0  0  0  0  0  0  0  0  0  0  0  0
   19.0477   -3.1556   -0.8229 C   0  0  0  0  0  0  0  0  0  0  0  0
   20.2678   -2.5102   -0.8943 C   0  0  0  0  0  0  0  0  0  0  0  0
   21.3172   -3.0252   -1.6989 C   0  0  0  0  0  0  0  0  0  0  0  0
   22.5610   -2.3614   -1.7808 C   0  0  0  0  0  0  0  0  0  0  0  0
   23.6427   -1.7957   -1.8668 C   0  0  0  0  0  0  0  0  0  0  0  0
   24.8769   -1.1191   -1.9505 C   0  0  0  0  0  0  0  0  0  0  0  0
   25.9118   -1.5290   -2.6383 N   0  0  0  0  0  0  0  0  0  0  0  0
   26.9559   -0.6582   -2.5256 C   0  0  0  0  0  0  0  0  0  0  0  0
   28.2157   -0.8085   -3.1431 C   0  0  0  0  0  0  0  0  0  0  0  0
   29.1802    0.1592   -2.9392 C   0  0  0  0  0  0  0  0  0  0  0  0
   28.9448    1.3090   -2.1243 C   0  0  0  0  0  0  0  0  0  0  0  0
   30.0462    2.2500   -1.9979 C   0  0  0  0  0  0  0  0  0  0  0  0
   30.1523    3.4371   -1.3210 C   0  0  0  0  0  0  0  0  0  0  0  0
   29.1093    4.0349   -0.5387 C   0  0  0  0  0  0  0  0  0  0  0  0
   28.2677    4.5234    0.0956 N   0  0  0  0  0  0  0  0  0  0  0  0
   31.3863    4.1719   -1.3750 C   0  0  0  0  0  0  0  0  0  0  0  0
   32.3850    4.7622   -1.4220 N   0  0  0  0  0  0  0  0  0  0  0  0
   27.6890    1.4653   -1.5023 C   0  0  0  0  0  0  0  0  0  0  0  0
   26.7172    0.4886   -1.7076 C   0  0  0  0  0  0  0  0  0  0  0  0
   25.0944    0.4179   -1.0748 S   0  0  0  0  0  0  0  0  0  0  0  0
   21.0914   -4.2326   -2.4119 C   0  0  0  0  0  0  0  0  0  0  0  0
   19.8772   -4.8872   -2.3338 C   0  0  0  0  0  0  0  0  0  0  0  0
   17.5949   -6.4661   -1.6169 C   0  0  0  0  0  0  0  0  0  0  0  0
   16.9363   -7.0637   -2.7024 C   0  0  0  0  0  0  0  0  0  0  0  0
   16.9354   -8.4467   -2.8388 C   0  0  0  0  0  0  0  0  0  0  0  0
   17.5933   -9.2771   -1.8919 C   0  0  0  0  0  0  0  0  0  0  0  0
   17.5960  -10.6832   -2.0317 C   0  0  0  0  0  0  0  0  0  0  0  0
   17.5961  -11.9036   -2.1655 C   0  0  0  0  0  0  0  0  0  0  0  0
   17.6252  -13.2998   -2.2792 C   0  0  0  0  0  0  0  0  0  0  0  0
   17.0464  -14.0083   -3.2337 N   0  0  0  0  0  0  0  0  0  0  0  0
   17.2550  -15.3321   -3.0730 C   0  0  0  0  0  0  0  0  0  0  0  0
   16.7687  -16.3611   -3.9258 C   0  0  0  0  0  0  0  0  0  0  0  0
   17.0622  -17.6735   -3.6392 C   0  0  0  0  0  0  0  0  0  0  0  0
   17.8494  -18.0674   -2.5022 C   0  0  0  0  0  0  0  0  0  0  0  0
   18.0838  -19.4639   -2.3184 C   0  0  0  0  0  0  0  0  0  0  0  0
   18.7949  -20.1657   -1.3389 C   0  0  0  0  0  0  0  0  0  0  0  0
   19.4839  -19.5775   -0.2385 C   0  0  0  0  0  0  0  0  0  0  0  0
   20.0509  -19.1076    0.6654 N   0  0  0  0  0  0  0  0  0  0  0  0
   18.8574  -21.5915   -1.4175 C   0  0  0  0  0  0  0  0  0  0  0  0
   18.9009  -22.7532   -1.4930 N   0  0  0  0  0  0  0  0  0  0  0  0
   18.3388  -17.0399   -1.6431 C   0  0  0  0  0  0  0  0  0  0  0  0
   18.0413  -15.7181   -1.9342 C   0  0  0  0  0  0  0  0  0  0  0  0
   18.5096  -14.2759   -1.0596 S   0  0  0  0  0  0  0  0  0  0  0  0
   18.2500   -8.6463   -0.8011 C   0  0  0  0  0  0  0  0  0  0  0  0
   18.2512   -7.2631   -0.6668 C   0  0  0  0  0  0  0  0  0  0  0  0
   15.3222   -5.0330   -0.6127 C   0  0  0  0  0  0  0  0  0  0  0  0
   14.1107   -4.3977   -0.4178 C   0  0  0  0  0  0  0  0  0  0  0  0
    9.0305   -2.0564    0.4808 S   0  0  0  0  0  0  0  0  0  0  0  0
    8.0389   -0.6406    0.2548 C   0  0  0  0  0  0  0  0  0  0  0  0
    6.7213   -0.4284    0.6548 C   0  0  0  0  0  0  0  0  0  0  0  0
    4.4464    2.1644    0.3930 H   0  0  0  0  0  0  0  0  0  0  0  0
    6.3909    2.7582   -0.5672 H   0  0  0  0  0  0  0  0  0  0  0  0
    8.7461    2.3557   -1.2694 H   0  0  0  0  0  0  0  0  0  0  0  0
   14.7785   -1.4327   -2.0018 H   0  0  0  0  0  0  0  0  0  0  0  0
   16.9440   -2.5565   -2.3515 H   0  0  0  0  0  0  0  0  0  0  0  0
   18.2704   -2.7654   -0.1654 H   0  0  0  0  0  0  0  0  0  0  0  0
   20.4385   -1.6049   -0.3091 H   0  0  0  0  0  0  0  0  0  0  0  0
   28.4026   -1.6836   -3.7673 H   0  0  0  0  0  0  0  0  0  0  0  0
   30.1577    0.0482   -3.4143 H   0  0  0  0  0  0  0  0  0  0  0  0
   30.9510    1.9617   -2.5402 H   0  0  0  0  0  0  0  0  0  0  0  0
   27.4731    2.3269   -0.8731 H   0  0  0  0  0  0  0  0  0  0  0  0
   21.8898   -4.6407   -3.0337 H   0  0  0  0  0  0  0  0  0  0  0  0
   19.7186   -5.8109   -2.8897 H   0  0  0  0  0  0  0  0  0  0  0  0
   16.4310   -6.4406   -3.4442 H   0  0  0  0  0  0  0  0  0  0  0  0
   16.4272   -8.9107   -3.6856 H   0  0  0  0  0  0  0  0  0  0  0  0
   16.1692  -16.0856   -4.7954 H   0  0  0  0  0  0  0  0  0  0  0  0
   16.6861  -18.4611   -4.2979 H   0  0  0  0  0  0  0  0  0  0  0  0
   17.6296  -20.1083   -3.0758 H   0  0  0  0  0  0  0  0  0  0  0  0
   18.9387  -17.2876   -0.7692 H   0  0  0  0  0  0  0  0  0  0  0  0
   18.7581   -9.2651   -0.0596 H   0  0  0  0  0  0  0  0  0  0  0  0
   18.7570   -6.7962    0.1817 H   0  0  0  0  0  0  0  0  0  0  0  0
   15.4760   -6.0436   -0.2350 H   0  0  0  0  0  0  0  0  0  0  0  0
   13.3103   -4.9102    0.1185 H   0  0  0  0  0  0  0  0  0  0  0  0
    6.1786   -1.2091    1.1847 H   0  0  0  0  0  0  0  0  0  0  0  0
  1  2  3  0
  2  3  1  0
  3  4  1  0
  3  6  2  0
  4  5  3  0
  6  7  1  0
  6 71  1  0
  7  8  2  0
  7 70  1  0
  8  9  1  0
  8 72  1  0
  9 10  2  0
  9 73  1  0
 10 11  1  0
 10 69  1  0
 11 12  2  0
 12 13  1  0
 12 68  1  0
 13 14  3  0
 14 15  1  0
 15 16  2  0
 15 67  1  0
 16 17  1  0
 16 74  1  0
 17 18  2  0
 17 75  1  0
 18 19  1  0
 18 66  1  0
 19 20  1  0
 19 43  1  0
 20 21  2  0
 20 42  1  0
 21 22  1  0
 21 76  1  0
 22 23  2  0
 22 77  1  0
 23 24  1  0
 23 41  1  0
 24 25  3  0
 25 26  1  0
 26 27  2  0
 26 40  1  0
 27 28  1  0
 28 29  2  0
 28 39  1  0
 29 30  1  0
 29 78  1  0
 30 31  2  0
 30 79  1  0
 31 32  1  0
 31 38  1  0
 32 33  2  0
 32 80  1  0
 33 34  1  0
 33 36  1  0
 34 35  3  0
 36 37  3  0
 38 39  2  0
 38 81  1  0
 39 40  1  0
 41 42  2  0
 41 82  1  0
 42 83  1  0
 43 44  2  0
 43 65  1  0
 44 45  1  0
 44 84  1  0
 45 46  2  0
 45 85  1  0
 46 47  1  0
 46 64  1  0
 47 48  3  0
 48 49  1  0
 49 50  2  0
 49 63  1  0
 50 51  1  0
 51 52  2  0
 51 62  1  0
 52 53  1  0
 52 86  1  0
 53 54  2  0
 53 87  1  0
 54 55  1  0
 54 61  1  0
 55 56  2  0
 55 88  1  0
 56 57  1  0
 56 59  1  0
 57 58  3  0
 59 60  3  0
 61 62  2  0
 61 89  1  0
 62 63  1  0
 64 65  2  0
 64 90  1  0
 65 91  1  0
 66 67  2  0
 66 92  1  0
 67 93  1  0
 68 69  1  0
 69 70  2  0
 70 94  1  0
M  END

