
     RDKit          3D

 90 98  0  0  0  0  0  0  0  0999 V2000
   -7.1987    2.9310   -1.1335 C   0  0  0  0  0  0  0  0  0  0  0  0
   -6.1044    2.5764   -0.0917 C   0  0  2  0  0  0  0  0  0  0  0  0
   -6.1402    3.6104    1.0652 C   0  0  0  0  0  0  0  0  0  0  0  0
   -4.7295    2.6332   -0.7723 C   0  0  0  0  0  0  0  0  0  0  0  0
   -4.2930    3.8392   -1.3422 C   0  0  0  0  0  0  0  0  0  0  0  0
   -3.0607    3.9699   -1.9818 C   0  0  0  0  0  0  0  0  0  0  0  0
   -2.2245    2.8556   -2.0613 C   0  0  0  0  0  0  0  0  0  0  0  0
   -2.6250    1.6431   -1.5077 C   0  0  0  0  0  0  0  0  0  0  0  0
   -3.8720    1.5126   -0.8575 C   0  0  0  0  0  0  0  0  0  0  0  0
   -4.2494    0.2750   -0.3043 N   0  0  0  0  0  0  0  0  0  0  0  0
   -3.3590   -0.8396   -0.4177 C   0  0  0  0  0  0  0  0  0  0  0  0
   -2.3763   -1.0619    0.5567 C   0  0  0  0  0  0  0  0  0  0  0  0
   -1.5025   -2.1423    0.4439 C   0  0  0  0  0  0  0  0  0  0  0  0
   -1.6021   -3.0316   -0.6418 C   0  0  0  0  0  0  0  0  0  0  0  0
   -0.7386   -4.2361   -0.7456 C   0  0  0  0  0  0  0  0  0  0  0  0
   -1.3318   -5.3354   -1.2148 N   0  0  0  0  0  0  0  0  0  0  0  0
   -0.7036   -6.5082   -1.1678 C   0  0  0  0  0  0  0  0  0  0  0  0
   -1.3608   -7.6532   -1.7458 C   0  0  0  0  0  0  0  0  0  0  0  0
   -1.8829   -8.5770   -2.2140 N   0  0  0  0  0  0  0  0  0  0  0  0
    0.5640   -6.6043   -0.5443 C   0  0  0  0  0  0  0  0  0  0  0  0
    1.2008   -7.8733   -0.2965 C   0  0  0  0  0  0  0  0  0  0  0  0
    1.7066   -8.8973   -0.0949 N   0  0  0  0  0  0  0  0  0  0  0  0
    1.2120   -5.4978   -0.1864 N   0  0  0  0  0  0  0  0  0  0  0  0
    0.6390   -4.3031   -0.3427 C   0  0  0  0  0  0  0  0  0  0  0  0
    1.5245   -3.1302   -0.1243 C   0  0  0  0  0  0  0  0  0  0  0  0
    2.5323   -3.1978    0.8552 C   0  0  0  0  0  0  0  0  0  0  0  0
    3.4150   -2.1350    1.0396 C   0  0  0  0  0  0  0  0  0  0  0  0
    3.3277   -0.9937    0.2309 C   0  0  0  0  0  0  0  0  0  0  0  0
    4.2450    0.0902    0.4093 N   0  0  0  0  0  0  0  0  0  0  0  0
    3.9032    1.1424    1.2789 C   0  0  0  0  0  0  0  0  0  0  0  0
    2.6605    1.1264    1.9501 C   0  0  0  0  0  0  0  0  0  0  0  0
    2.2951    2.1550    2.8135 C   0  0  0  0  0  0  0  0  0  0  0  0
    3.1628    3.2262    3.0304 C   0  0  0  0  0  0  0  0  0  0  0  0
    4.3906    3.2393    2.3695 C   0  0  0  0  0  0  0  0  0  0  0  0
    4.7922    2.2205    1.4917 C   0  0  0  0  0  0  0  0  0  0  0  0
    6.1661    2.3105    0.8125 C   0  0  2  0  0  0  0  0  0  0  0  0
    7.2676    2.3310    1.9059 C   0  0  0  0  0  0  0  0  0  0  0  0
    6.2382    3.6209   -0.0156 C   0  0  0  0  0  0  0  0  0  0  0  0
    6.4091    1.1148   -0.1188 C   0  0  0  0  0  0  0  0  0  0  0  0
    7.6110    1.0365   -0.8395 C   0  0  0  0  0  0  0  0  0  0  0  0
    7.9069   -0.0182   -1.7023 C   0  0  0  0  0  0  0  0  0  0  0  0
    6.9702   -1.0408   -1.8585 C   0  0  0  0  0  0  0  0  0  0  0  0
    5.7674   -0.9963   -1.1597 C   0  0  0  0  0  0  0  0  0  0  0  0
    5.4697    0.0717   -0.2849 C   0  0  0  0  0  0  0  0  0  0  0  0
    2.3409   -0.9296   -0.7624 C   0  0  0  0  0  0  0  0  0  0  0  0
    1.4441   -1.9828   -0.9348 C   0  0  0  0  0  0  0  0  0  0  0  0
   -2.6064   -2.8164   -1.6033 C   0  0  0  0  0  0  0  0  0  0  0  0
   -3.4663   -1.7243   -1.4992 C   0  0  0  0  0  0  0  0  0  0  0  0
   -5.4795    0.1048    0.3588 C   0  0  0  0  0  0  0  0  0  0  0  0
   -5.8127   -1.1502    0.9144 C   0  0  0  0  0  0  0  0  0  0  0  0
   -7.0237   -1.3476    1.5715 C   0  0  0  0  0  0  0  0  0  0  0  0
   -7.9333   -0.2960    1.6912 C   0  0  0  0  0  0  0  0  0  0  0  0
   -7.6014    0.9434    1.1453 C   0  0  0  0  0  0  0  0  0  0  0  0
   -6.3897    1.1794    0.4774 C   0  0  0  0  0  0  0  0  0  0  0  0
   -7.1943    2.2106   -1.9655 H   0  0  0  0  0  0  0  0  0  0  0  0
   -7.0382    3.9357   -1.5531 H   0  0  0  0  0  0  0  0  0  0  0  0
   -8.2005    2.9177   -0.6780 H   0  0  0  0  0  0  0  0  0  0  0  0
   -5.9602    4.6307    0.6938 H   0  0  0  0  0  0  0  0  0  0  0  0
   -7.1183    3.6098    1.5697 H   0  0  0  0  0  0  0  0  0  0  0  0
   -5.3700    3.3816    1.8174 H   0  0  0  0  0  0  0  0  0  0  0  0
   -4.9445    4.7137   -1.2836 H   0  0  0  0  0  0  0  0  0  0  0  0
   -2.7609    4.9284   -2.4109 H   0  0  0  0  0  0  0  0  0  0  0  0
   -1.2525    2.9241   -2.5564 H   0  0  0  0  0  0  0  0  0  0  0  0
   -1.9607    0.7830   -1.5789 H   0  0  0  0  0  0  0  0  0  0  0  0
   -2.3069   -0.3816    1.4078 H   0  0  0  0  0  0  0  0  0  0  0  0
   -0.7525   -2.3054    1.2199 H   0  0  0  0  0  0  0  0  0  0  0  0
    2.6170   -4.0961    1.4687 H   0  0  0  0  0  0  0  0  0  0  0  0
    4.1885   -2.1845    1.8086 H   0  0  0  0  0  0  0  0  0  0  0  0
    1.9728    0.2969    1.7916 H   0  0  0  0  0  0  0  0  0  0  0  0
    1.3258    2.1140    3.3170 H   0  0  0  0  0  0  0  0  0  0  0  0
    2.8908    4.0409    3.7050 H   0  0  0  0  0  0  0  0  0  0  0  0
    5.0676    4.0781    2.5445 H   0  0  0  0  0  0  0  0  0  0  0  0
    8.2705    2.4073    1.4589 H   0  0  0  0  0  0  0  0  0  0  0  0
    7.1398    3.1889    2.5837 H   0  0  0  0  0  0  0  0  0  0  0  0
    7.2342    1.4121    2.5108 H   0  0  0  0  0  0  0  0  0  0  0  0
    6.0848    4.5044    0.6223 H   0  0  0  0  0  0  0  0  0  0  0  0
    5.4665    3.6301   -0.8003 H   0  0  0  0  0  0  0  0  0  0  0  0
    7.2191    3.7311   -0.5018 H   0  0  0  0  0  0  0  0  0  0  0  0
    8.3482    1.8335   -0.7208 H   0  0  0  0  0  0  0  0  0  0  0  0
    8.8556   -0.0387   -2.2429 H   0  0  0  0  0  0  0  0  0  0  0  0
    7.1704   -1.8819   -2.5270 H   0  0  0  0  0  0  0  0  0  0  0  0
    5.0478   -1.8027   -1.2941 H   0  0  0  0  0  0  0  0  0  0  0  0
    2.2869   -0.0470   -1.4028 H   0  0  0  0  0  0  0  0  0  0  0  0
    0.6912   -1.9196   -1.7222 H   0  0  0  0  0  0  0  0  0  0  0  0
   -2.7060   -3.5179   -2.4331 H   0  0  0  0  0  0  0  0  0  0  0  0
   -4.2364   -1.5518   -2.2537 H   0  0  0  0  0  0  0  0  0  0  0  0
   -5.1147   -1.9820    0.8296 H   0  0  0  0  0  0  0  0  0  0  0  0
   -7.2522   -2.3313    1.9894 H   0  0  0  0  0  0  0  0  0  0  0  0
   -8.8882   -0.4356    2.2025 H   0  0  0  0  0  0  0  0  0  0  0  0
   -8.3154    1.7641    1.2418 H   0  0  0  0  0  0  0  0  0  0  0  0
  2  1  1  6
  1 55  1  0
  1 56  1  0
  1 57  1  0
  2  3  1  0
  2  4  1  0
  2 54  1  0
  3 58  1  0
  3 59  1  0
  3 60  1  0
  4  5  1  0
  4  9  2  0
  5  6  2  0
  5 61  1  0
  6  7  1  0
  6 62  1  0
  7  8  2  0
  7 63  1  0
  8  9  1  0
  8 64  1  0
  9 10  1  0
 10 11  1  0
 10 49  1  0
 11 12  2  0
 11 48  1  0
 12 13  1  0
 12 65  1  0
 13 14  2  0
 13 66  1  0
 14 15  1  0
 14 47  1  0
 15 16  2  0
 15 24  1  0
 16 17  1  0
 17 18  1  0
 17 20  2  0
 18 19  3  0
 20 21  1  0
 20 23  1  0
 21 22  3  0
 23 24  2  0
 24 25  1  0
 25 26  2  0
 25 46  1  0
 26 27  1  0
 26 67  1  0
 27 28  2  0
 27 68  1  0
 28 29  1  0
 28 45  1  0
 29 30  1  0
 29 44  1  0
 30 31  2  0
 30 35  1  0
 31 32  1  0
 31 69  1  0
 32 33  2  0
 32 70  1  0
 33 34  1  0
 33 71  1  0
 34 35  2  0
 34 72  1  0
 35 36  1  0
 36 37  1  1
 36 38  1  0
 36 39  1  0
 37 73  1  0
 37 74  1  0
 37 75  1  0
 38 76  1  0
 38 77  1  0
 38 78  1  0
 39 40  2  0
 39 44  1  0
 40 41  1  0
 40 79  1  0
 41 42  2  0
 41 80  1  0
 42 43  1  0
 42 81  1  0
 43 44  2  0
 43 82  1  0
 45 46  2  0
 45 83  1  0
 46 84  1  0
 47 48  2  0
 47 85  1  0
 48 86  1  0
 49 50  1  0
 49 54  2  0
 50 51  2  0
 50 87  1  0
 51 52  1  0
 51 88  1  0
 52 53  2  0
 52 89  1  0
 53 54  1  0
 53 90  1  0
M  END

