
     RDKit          3D

 68 75  0  0  0  0  0  0  0  0999 V2000
   -1.8126    1.0640    0.0285 C   0  0  0  0  0  0  0  0  0  0  0  0
   -1.3898   -0.0153   -0.7515 C   0  0  0  0  0  0  0  0  0  0  0  0
   -0.0373   -0.3626   -0.7988 C   0  0  0  0  0  0  0  0  0  0  0  0
    0.9170    0.3630   -0.0623 C   0  0  0  0  0  0  0  0  0  0  0  0
    2.3482    0.0155   -0.1045 C   0  0  0  0  0  0  0  0  0  0  0  0
    3.2698    0.9255    0.1381 N   0  0  0  0  0  0  0  0  0  0  0  0
    4.4999    0.3568    0.0528 N   0  0  0  0  0  0  0  0  0  0  0  0
    5.6539    1.1613    0.2530 C   0  0  0  0  0  0  0  0  0  0  0  0
    5.4929    2.5356    0.5023 C   0  0  0  0  0  0  0  0  0  0  0  0
    6.6140    3.3398    0.7042 C   0  0  0  0  0  0  0  0  0  0  0  0
    7.9018    2.7959    0.6597 C   0  0  0  0  0  0  0  0  0  0  0  0
    8.0542    1.4302    0.4093 C   0  0  0  0  0  0  0  0  0  0  0  0
    6.9439    0.6069    0.2058 C   0  0  0  0  0  0  0  0  0  0  0  0
    4.3872   -0.9936   -0.2547 C   0  0  0  0  0  0  0  0  0  0  0  0
    5.3545   -1.8723   -0.4025 N   0  0  0  0  0  0  0  0  0  0  0  0
    4.9752   -3.1426   -0.6749 C   0  0  0  0  0  0  0  0  0  0  0  0
    5.9758   -4.1437   -0.8488 C   0  0  0  0  0  0  0  0  0  0  0  0
    5.6433   -5.4470   -1.1212 C   0  0  0  0  0  0  0  0  0  0  0  0
    4.2755   -5.8614   -1.2293 C   0  0  0  0  0  0  0  0  0  0  0  0
    3.9772   -7.2143   -1.5012 N   0  0  0  0  0  0  0  0  0  0  0  0
    2.8430   -7.5871   -2.2745 C   0  0  0  0  0  0  0  0  0  0  0  0
    2.0941   -8.7235   -1.9190 C   0  0  0  0  0  0  0  0  0  0  0  0
    0.9974   -9.1171   -2.6880 C   0  0  0  0  0  0  0  0  0  0  0  0
    0.6181   -8.3814   -3.8147 C   0  0  0  0  0  0  0  0  0  0  0  0
    1.3582   -7.2490   -4.1706 C   0  0  0  0  0  0  0  0  0  0  0  0
    2.4650   -6.8565   -3.4163 C   0  0  0  0  0  0  0  0  0  0  0  0
    4.8922   -8.2402   -1.1056 C   0  0  0  0  0  0  0  0  0  0  0  0
    5.5073   -9.0166   -2.0747 C   0  0  0  0  0  0  0  0  0  0  0  0
    6.4177  -10.0391   -1.7220 C   0  0  0  0  0  0  0  0  0  0  0  0
    6.7232  -10.2718   -0.3981 C   0  0  0  0  0  0  0  0  0  0  0  0
    6.1090   -9.5066    0.6317 C   0  0  0  0  0  0  0  0  0  0  0  0
    6.3913   -9.7469    2.0065 C   0  0  0  0  0  0  0  0  0  0  0  0
    5.7605   -9.0271    2.9982 C   0  0  0  0  0  0  0  0  0  0  0  0
    4.8091   -8.0343    2.6566 C   0  0  0  0  0  0  0  0  0  0  0  0
    4.5182   -7.7672    1.3346 C   0  0  0  0  0  0  0  0  0  0  0  0
    5.1623   -8.4814    0.2847 C   0  0  0  0  0  0  0  0  0  0  0  0
    3.2804   -4.9118   -1.0527 C   0  0  0  0  0  0  0  0  0  0  0  0
    3.5927   -3.5484   -0.7918 C   0  0  0  0  0  0  0  0  0  0  0  0
    2.5881   -2.5649   -0.6217 C   0  0  0  0  0  0  0  0  0  0  0  0
    2.9801   -1.2610   -0.3638 C   0  0  0  0  0  0  0  0  0  0  0  0
    0.4793    1.4531    0.7150 C   0  0  0  0  0  0  0  0  0  0  0  0
   -0.8706    1.7987    0.7582 C   0  0  0  0  0  0  0  0  0  0  0  0
   -2.8710    1.3342    0.0667 H   0  0  0  0  0  0  0  0  0  0  0  0
   -2.1154   -0.5877   -1.3351 H   0  0  0  0  0  0  0  0  0  0  0  0
    0.2808   -1.1857   -1.4407 H   0  0  0  0  0  0  0  0  0  0  0  0
    4.4886    2.9546    0.5323 H   0  0  0  0  0  0  0  0  0  0  0  0
    6.4757    4.4069    0.8971 H   0  0  0  0  0  0  0  0  0  0  0  0
    8.7766    3.4312    0.8180 H   0  0  0  0  0  0  0  0  0  0  0  0
    9.0536    0.9888    0.3706 H   0  0  0  0  0  0  0  0  0  0  0  0
    7.0632   -0.4564    0.0100 H   0  0  0  0  0  0  0  0  0  0  0  0
    7.0201   -3.8358   -0.7689 H   0  0  0  0  0  0  0  0  0  0  0  0
    6.4312   -6.1878   -1.2650 H   0  0  0  0  0  0  0  0  0  0  0  0
    2.3783   -9.2973   -1.0348 H   0  0  0  0  0  0  0  0  0  0  0  0
    0.4283  -10.0033   -2.3948 H   0  0  0  0  0  0  0  0  0  0  0  0
   -0.2442   -8.6883   -4.4113 H   0  0  0  0  0  0  0  0  0  0  0  0
    1.0816   -6.6701   -5.0558 H   0  0  0  0  0  0  0  0  0  0  0  0
    3.0441   -5.9801   -3.7126 H   0  0  0  0  0  0  0  0  0  0  0  0
    5.2828   -8.8244   -3.1259 H   0  0  0  0  0  0  0  0  0  0  0  0
    6.8881  -10.6326   -2.5097 H   0  0  0  0  0  0  0  0  0  0  0  0
    7.4360  -11.0529   -0.1210 H   0  0  0  0  0  0  0  0  0  0  0  0
    7.1180  -10.5227    2.2624 H   0  0  0  0  0  0  0  0  0  0  0  0
    5.9866   -9.2240    4.0491 H   0  0  0  0  0  0  0  0  0  0  0  0
    4.3009   -7.4769    3.4474 H   0  0  0  0  0  0  0  0  0  0  0  0
    3.7819   -7.0031    1.0848 H   0  0  0  0  0  0  0  0  0  0  0  0
    2.2299   -5.2008   -1.1191 H   0  0  0  0  0  0  0  0  0  0  0  0
    1.5364   -2.8511   -0.6853 H   0  0  0  0  0  0  0  0  0  0  0  0
    1.2156    2.0188    1.2883 H   0  0  0  0  0  0  0  0  0  0  0  0
   -1.1927    2.6451    1.3703 H   0  0  0  0  0  0  0  0  0  0  0  0
  1  2  2  0
  1 42  1  0
  1 43  1  0
  2  3  1  0
  2 44  1  0
  3  4  2  0
  3 45  1  0
  4  5  1  0
  4 41  1  0
  5  6  2  0
  5 40  1  0
  6  7  1  0
  7  8  1  0
  7 14  1  0
  8  9  2  0
  8 13  1  0
  9 10  1  0
  9 46  1  0
 10 11  2  0
 10 47  1  0
 11 12  1  0
 11 48  1  0
 12 13  2  0
 12 49  1  0
 13 50  1  0
 14 15  1  0
 14 40  2  0
 15 16  2  0
 16 17  1  0
 16 38  1  0
 17 18  2  0
 17 51  1  0
 18 19  1  0
 18 52  1  0
 19 20  1  0
 19 37  2  0
 20 21  1  0
 20 27  1  0
 21 22  2  0
 21 26  1  0
 22 23  1  0
 22 53  1  0
 23 24  2  0
 23 54  1  0
 24 25  1  0
 24 55  1  0
 25 26  2  0
 25 56  1  0
 26 57  1  0
 27 28  2  0
 27 36  1  0
 28 29  1  0
 28 58  1  0
 29 30  2  0
 29 59  1  0
 30 31  1  0
 30 60  1  0
 31 32  1  0
 31 36  2  0
 32 33  2  0
 32 61  1  0
 33 34  1  0
 33 62  1  0
 34 35  2  0
 34 63  1  0
 35 36  1  0
 35 64  1  0
 37 38  1  0
 37 65  1  0
 38 39  2  0
 39 40  1  0
 39 66  1  0
 41 42  2  0
 41 67  1  0
 42 68  1  0
M  END

