
     RDKit          3D

120129  0  0  0  0  0  0  0  0999 V2000
    0.7132    0.5758    2.2101 C   0  0  0  0  0  0  0  0  0  0  0  0
    2.2376    0.4991    2.3170 C   0  0  0  0  0  0  0  0  0  0  0  0
    2.9434    0.9978    1.0529 C   0  0  0  0  0  0  0  0  0  0  0  0
    4.4989    0.9744    1.0691 C   0  0  2  0  0  0  0  0  0  0  0  0
    5.0064    1.5038   -0.3028 C   0  0  0  0  0  0  0  0  0  0  0  0
    6.5246    1.5660   -0.4946 C   0  0  0  0  0  0  0  0  0  0  0  0
    6.9228    2.0999   -1.8721 C   0  0  0  0  0  0  0  0  0  0  0  0
    5.0472   -0.4204    1.3793 C   0  0  0  0  0  0  0  0  0  0  0  0
    4.8658   -1.6020    0.6703 C   0  0  0  0  0  0  0  0  0  0  0  0
    5.4517   -2.8047    1.1242 C   0  0  0  0  0  0  0  0  0  0  0  0
    5.2651   -4.0724    0.3725 C   0  0  0  0  0  0  0  0  0  0  0  0
    5.1933   -4.0864   -1.0338 C   0  0  0  0  0  0  0  0  0  0  0  0
    5.0197   -5.2747   -1.7405 C   0  0  0  0  0  0  0  0  0  0  0  0
    4.9072   -6.5114   -1.0780 C   0  0  0  0  0  0  0  0  0  0  0  0
    4.7221   -7.7787   -1.8327 C   0  0  0  0  0  0  0  0  0  0  0  0
    5.3562   -7.9841   -3.0735 C   0  0  0  0  0  0  0  0  0  0  0  0
    5.1817   -9.1736   -3.7836 C   0  0  0  0  0  0  0  0  0  0  0  0
    4.3681  -10.1883   -3.2706 C   0  0  0  0  0  0  0  0  0  0  0  0
    3.7316  -10.0009   -2.0400 C   0  0  0  0  0  0  0  0  0  0  0  0
    3.9066   -8.8112   -1.3304 C   0  0  0  0  0  0  0  0  0  0  0  0
    4.9774   -6.4983    0.3277 C   0  0  0  0  0  0  0  0  0  0  0  0
    5.1524   -5.3101    1.0345 C   0  0  0  0  0  0  0  0  0  0  0  0
    6.2202   -2.7714    2.3073 C   0  0  0  0  0  0  0  0  0  0  0  0
    6.4079   -1.5887    3.0247 C   0  0  0  0  0  0  0  0  0  0  0  0
    5.8194   -0.4075    2.5608 C   0  0  0  0  0  0  0  0  0  0  0  0
    5.8374    0.9600    3.0908 C   0  0  0  0  0  0  0  0  0  0  0  0
    6.4569    1.5092    4.2186 C   0  0  0  0  0  0  0  0  0  0  0  0
    6.3043    2.8709    4.4853 C   0  0  0  0  0  0  0  0  0  0  0  0
    5.5382    3.7082    3.6463 C   0  0  0  0  0  0  0  0  0  0  0  0
    5.3827    5.1549    3.9479 C   0  0  0  0  0  0  0  0  0  0  0  0
    6.4484    5.9006    4.4961 C   0  0  0  0  0  0  0  0  0  0  0  0
    6.3187    7.2605    4.7836 C   0  0  0  0  0  0  0  0  0  0  0  0
    5.1023    7.9010    4.5239 C   0  0  0  0  0  0  0  0  0  0  0  0
    4.0242    7.1721    3.9775 C   0  0  0  0  0  0  0  0  0  0  0  0
    4.1621    5.8189    3.6921 C   0  0  0  0  0  0  0  0  0  0  0  0
    2.7966    8.0668    3.7924 C   0  0  1  0  0  0  0  0  0  0  0  0
    2.3505    8.1389    2.3041 C   0  0  0  0  0  0  0  0  0  0  0  0
    3.4003    8.6140    1.2954 C   0  0  0  0  0  0  0  0  0  0  0  0
    2.8633    8.6584   -0.1367 C   0  0  0  0  0  0  0  0  0  0  0  0
    1.5879    7.5714    4.6380 C   0  0  0  0  0  0  0  0  0  0  0  0
    1.8189    7.4304    6.1453 C   0  0  0  0  0  0  0  0  0  0  0  0
    0.5741    6.9420    6.8890 C   0  0  0  0  0  0  0  0  0  0  0  0
    3.3319    9.4090    4.2958 C   0  0  0  0  0  0  0  0  0  0  0  0
    2.6736   10.6303    4.3792 C   0  0  0  0  0  0  0  0  0  0  0  0
    3.3380   11.7662    4.8931 C   0  0  0  0  0  0  0  0  0  0  0  0
    2.6423   13.0751    4.9898 C   0  0  0  0  0  0  0  0  0  0  0  0
    2.8883   13.9595    6.0577 C   0  0  0  0  0  0  0  0  0  0  0  0
    2.2348   15.1868    6.1492 C   0  0  0  0  0  0  0  0  0  0  0  0
    1.3005   15.5936    5.1781 C   0  0  0  0  0  0  0  0  0  0  0  0
    0.6008   16.9014    5.2771 C   0  0  0  0  0  0  0  0  0  0  0  0
    1.2568   18.0403    5.7830 C   0  0  0  0  0  0  0  0  0  0  0  0
    0.5991   19.2684    5.8772 C   0  0  0  0  0  0  0  0  0  0  0  0
   -0.7322   19.3885    5.4673 C   0  0  0  0  0  0  0  0  0  0  0  0
   -1.3983   18.2678    4.9624 C   0  0  0  0  0  0  0  0  0  0  0  0
   -0.7400   17.0401    4.8688 C   0  0  0  0  0  0  0  0  0  0  0  0
    1.0545   14.7104    4.1100 C   0  0  0  0  0  0  0  0  0  0  0  0
    1.7081   13.4831    4.0182 C   0  0  0  0  0  0  0  0  0  0  0  0
    4.6780   11.6270    5.3127 C   0  0  0  0  0  0  0  0  0  0  0  0
    5.3468   10.4044    5.2311 C   0  0  0  0  0  0  0  0  0  0  0  0
    4.6726    9.2896    4.7215 C   0  0  0  0  0  0  0  0  0  0  0  0
    4.9195    3.1356    2.5123 C   0  0  0  0  0  0  0  0  0  0  0  0
    5.0683    1.7811    2.2384 C   0  0  0  0  0  0  0  0  0  0  0  0
    0.2270    0.2093    3.1283 H   0  0  0  0  0  0  0  0  0  0  0  0
    0.3364   -0.0322    1.3702 H   0  0  0  0  0  0  0  0  0  0  0  0
    0.3710    1.6115    2.0447 H   0  0  0  0  0  0  0  0  0  0  0  0
    2.5387   -0.5422    2.5209 H   0  0  0  0  0  0  0  0  0  0  0  0
    2.5758    1.0897    3.1852 H   0  0  0  0  0  0  0  0  0  0  0  0
    2.6226    2.0344    0.8433 H   0  0  0  0  0  0  0  0  0  0  0  0
    2.6020    0.4010    0.1876 H   0  0  0  0  0  0  0  0  0  0  0  0
    4.5801    2.5115   -0.4579 H   0  0  0  0  0  0  0  0  0  0  0  0
    4.5663    0.8707   -1.0945 H   0  0  0  0  0  0  0  0  0  0  0  0
    6.9563    0.5609   -0.3514 H   0  0  0  0  0  0  0  0  0  0  0  0
    6.9695    2.2029    0.2885 H   0  0  0  0  0  0  0  0  0  0  0  0
    6.5249    1.4652   -2.6820 H   0  0  0  0  0  0  0  0  0  0  0  0
    8.0178    2.1365   -1.9878 H   0  0  0  0  0  0  0  0  0  0  0  0
    6.5379    3.1207   -2.0362 H   0  0  0  0  0  0  0  0  0  0  0  0
    4.2456   -1.6134   -0.2296 H   0  0  0  0  0  0  0  0  0  0  0  0
    5.2932   -3.1504   -1.5880 H   0  0  0  0  0  0  0  0  0  0  0  0
    4.9545   -5.2395   -2.8305 H   0  0  0  0  0  0  0  0  0  0  0  0
    6.0150   -7.2109   -3.4754 H   0  0  0  0  0  0  0  0  0  0  0  0
    5.6921   -9.3117   -4.7404 H   0  0  0  0  0  0  0  0  0  0  0  0
    4.2312  -11.1194   -3.8264 H   0  0  0  0  0  0  0  0  0  0  0  0
    3.0863  -10.7836   -1.6323 H   0  0  0  0  0  0  0  0  0  0  0  0
    3.3817   -8.6698   -0.3828 H   0  0  0  0  0  0  0  0  0  0  0  0
    4.9096   -7.4388    0.8793 H   0  0  0  0  0  0  0  0  0  0  0  0
    5.1853   -5.3428    2.1259 H   0  0  0  0  0  0  0  0  0  0  0  0
    6.7019   -3.6873    2.6565 H   0  0  0  0  0  0  0  0  0  0  0  0
    7.0166   -1.5927    3.9326 H   0  0  0  0  0  0  0  0  0  0  0  0
    7.0486    0.8849    4.8931 H   0  0  0  0  0  0  0  0  0  0  0  0
    6.7676    3.2932    5.3796 H   0  0  0  0  0  0  0  0  0  0  0  0
    7.4066    5.4079    4.6751 H   0  0  0  0  0  0  0  0  0  0  0  0
    7.1657    7.8129    5.1986 H   0  0  0  0  0  0  0  0  0  0  0  0
    3.3168    5.2525    3.2934 H   0  0  0  0  0  0  0  0  0  0  0  0
    1.4664    8.7995    2.2448 H   0  0  0  0  0  0  0  0  0  0  0  0
    1.9915    7.1363    2.0086 H   0  0  0  0  0  0  0  0  0  0  0  0
    4.2801    7.9497    1.3368 H   0  0  0  0  0  0  0  0  0  0  0  0
    3.7618    9.6156    1.5833 H   0  0  0  0  0  0  0  0  0  0  0  0
    2.5245    7.6634   -0.4722 H   0  0  0  0  0  0  0  0  0  0  0  0
    3.6340    9.0020   -0.8449 H   0  0  0  0  0  0  0  0  0  0  0  0
    2.0031    9.3438   -0.2246 H   0  0  0  0  0  0  0  0  0  0  0  0
    1.2633    6.5976    4.2284 H   0  0  0  0  0  0  0  0  0  0  0  0
    0.7440    8.2631    4.4636 H   0  0  0  0  0  0  0  0  0  0  0  0
    2.1375    8.4008    6.5622 H   0  0  0  0  0  0  0  0  0  0  0  0
    2.6529    6.7315    6.3265 H   0  0  0  0  0  0  0  0  0  0  0  0
   -0.2722    7.6379    6.7598 H   0  0  0  0  0  0  0  0  0  0  0  0
    0.7632    6.8482    7.9702 H   0  0  0  0  0  0  0  0  0  0  0  0
    0.2458    5.9543    6.5232 H   0  0  0  0  0  0  0  0  0  0  0  0
    1.6278   10.7132    4.0726 H   0  0  0  0  0  0  0  0  0  0  0  0
    3.5797   13.6660    6.8508 H   0  0  0  0  0  0  0  0  0  0  0  0
    2.4287   15.8283    7.0121 H   0  0  0  0  0  0  0  0  0  0  0  0
    2.3046   17.9684    6.0836 H   0  0  0  0  0  0  0  0  0  0  0  0
    1.1334   20.1395    6.2656 H   0  0  0  0  0  0  0  0  0  0  0  0
   -1.2474   20.3496    5.5407 H   0  0  0  0  0  0  0  0  0  0  0  0
   -2.4419   18.3471    4.6466 H   0  0  0  0  0  0  0  0  0  0  0  0
   -1.2819   16.1676    4.4965 H   0  0  0  0  0  0  0  0  0  0  0  0
    0.3625   15.0041    3.3173 H   0  0  0  0  0  0  0  0  0  0  0  0
    1.5146   12.8427    3.1546 H   0  0  0  0  0  0  0  0  0  0  0  0
    5.2134   12.5024    5.6867 H   0  0  0  0  0  0  0  0  0  0  0  0
    6.3878   10.3296    5.5561 H   0  0  0  0  0  0  0  0  0  0  0  0
    4.3441    3.7729    1.8359 H   0  0  0  0  0  0  0  0  0  0  0  0
  1  2  1  0
  1 63  1  0
  1 64  1  0
  1 65  1  0
  2  3  1  0
  2 66  1  0
  2 67  1  0
  4  3  1  6
  3 68  1  0
  3 69  1  0
  4  5  1  0
  4  8  1  0
  4 62  1  0
  5  6  1  0
  5 70  1  0
  5 71  1  0
  6  7  1  0
  6 72  1  0
  6 73  1  0
  7 74  1  0
  7 75  1  0
  7 76  1  0
  8  9  2  0
  8 25  1  0
  9 10  1  0
  9 77  1  0
 10 11  1  0
 10 23  2  0
 11 12  2  0
 11 22  1  0
 12 13  1  0
 12 78  1  0
 13 14  2  0
 13 79  1  0
 14 15  1  0
 14 21  1  0
 15 16  2  0
 15 20  1  0
 16 17  1  0
 16 80  1  0
 17 18  2  0
 17 81  1  0
 18 19  1  0
 18 82  1  0
 19 20  2  0
 19 83  1  0
 20 84  1  0
 21 22  2  0
 21 85  1  0
 22 86  1  0
 23 24  1  0
 23 87  1  0
 24 25  2  0
 24 88  1  0
 25 26  1  0
 26 27  2  0
 26 62  1  0
 27 28  1  0
 27 89  1  0
 28 29  2  0
 28 90  1  0
 29 30  1  0
 29 61  1  0
 30 31  2  0
 30 35  1  0
 31 32  1  0
 31 91  1  0
 32 33  2  0
 32 92  1  0
 33 34  1  0
 33 60  1  0
 34 35  2  0
 34 36  1  0
 35 93  1  0
 36 37  1  6
 36 40  1  0
 36 43  1  0
 37 38  1  0
 37 94  1  0
 37 95  1  0
 38 39  1  0
 38 96  1  0
 38 97  1  0
 39 98  1  0
 39 99  1  0
 39100  1  0
 40 41  1  0
 40101  1  0
 40102  1  0
 41 42  1  0
 41103  1  0
 41104  1  0
 42105  1  0
 42106  1  0
 42107  1  0
 43 44  1  0
 43 60  2  0
 44 45  2  0
 44108  1  0
 45 46  1  0
 45 58  1  0
 46 47  2  0
 46 57  1  0
 47 48  1  0
 47109  1  0
 48 49  2  0
 48110  1  0
 49 50  1  0
 49 56  1  0
 50 51  2  0
 50 55  1  0
 51 52  1  0
 51111  1  0
 52 53  2  0
 52112  1  0
 53 54  1  0
 53113  1  0
 54 55  2  0
 54114  1  0
 55115  1  0
 56 57  2  0
 56116  1  0
 57117  1  0
 58 59  2  0
 58118  1  0
 59 60  1  0
 59119  1  0
 61 62  2  0
 61120  1  0
M  END

