
     RDKit          3D

 43 46  0  0  0  0  0  0  0  0999 V2000
    1.1515   -0.0036   -0.2487 C   0  0  0  0  0  0  0  0  0  0  0  0
    2.5023   -0.0099    0.1535 O   0  0  0  0  0  0  0  0  0  0  0  0
    3.1287   -1.1935    0.3654 C   0  0  0  0  0  0  0  0  0  0  0  0
    4.4759   -1.1207    0.7688 C   0  0  0  0  0  0  0  0  0  0  0  0
    5.2018   -2.2763    1.0118 C   0  0  0  0  0  0  0  0  0  0  0  0
    4.6129   -3.5505    0.8623 C   0  0  0  0  0  0  0  0  0  0  0  0
    5.4190   -4.7446    1.1313 C   0  0  0  0  0  0  0  0  0  0  0  0
    6.6982   -4.7488    1.4580 N   0  0  0  0  0  0  0  0  0  0  0  0
    7.0735   -6.0591    1.6231 C   0  0  0  0  0  0  0  0  0  0  0  0
    8.4766   -6.3883    1.9449 C   0  0  0  0  0  0  0  0  0  0  0  0
    9.2580   -5.4455    2.6405 C   0  0  0  0  0  0  0  0  0  0  0  0
   10.5935   -5.7099    2.9463 C   0  0  0  0  0  0  0  0  0  0  0  0
   11.1817   -6.9181    2.5578 C   0  0  0  0  0  0  0  0  0  0  0  0
   10.4216   -7.8551    1.8510 C   0  0  0  0  0  0  0  0  0  0  0  0
    9.0849   -7.5926    1.5434 C   0  0  0  0  0  0  0  0  0  0  0  0
    5.9715   -6.8944    1.4031 C   0  0  0  0  0  0  0  0  0  0  0  0
    5.7276   -8.3418    1.4914 C   0  0  0  0  0  0  0  0  0  0  0  0
    6.2770   -9.1167    2.5326 C   0  0  0  0  0  0  0  0  0  0  0  0
    6.0071  -10.4823    2.6236 C   0  0  0  0  0  0  0  0  0  0  0  0
    5.1747  -11.1056    1.6870 C   0  0  0  0  0  0  0  0  0  0  0  0
    4.6166  -10.3490    0.6530 C   0  0  0  0  0  0  0  0  0  0  0  0
    4.8926   -8.9835    0.5534 C   0  0  0  0  0  0  0  0  0  0  0  0
    4.9441   -6.0279    1.0731 N   0  0  0  0  0  0  0  0  0  0  0  0
    3.9820   -6.3104    0.9372 H   0  0  0  0  0  0  0  0  0  0  0  0
    3.2720   -3.6105    0.4550 C   0  0  0  0  0  0  0  0  0  0  0  0
    2.5287   -2.4519    0.2084 C   0  0  0  0  0  0  0  0  0  0  0  0
    0.8608    1.0502   -0.3545 H   0  0  0  0  0  0  0  0  0  0  0  0
    0.4963   -0.4812    0.5023 H   0  0  0  0  0  0  0  0  0  0  0  0
    1.0081   -0.5124   -1.2193 H   0  0  0  0  0  0  0  0  0  0  0  0
    4.9278   -0.1332    0.8834 H   0  0  0  0  0  0  0  0  0  0  0  0
    6.2463   -2.2233    1.3230 H   0  0  0  0  0  0  0  0  0  0  0  0
    8.7971   -4.5001    2.9309 H   0  0  0  0  0  0  0  0  0  0  0  0
   11.1809   -4.9660    3.4915 H   0  0  0  0  0  0  0  0  0  0  0  0
   12.2282   -7.1246    2.7968 H   0  0  0  0  0  0  0  0  0  0  0  0
   10.8754   -8.7950    1.5255 H   0  0  0  0  0  0  0  0  0  0  0  0
    8.5141   -8.3232    0.9679 H   0  0  0  0  0  0  0  0  0  0  0  0
    6.9111   -8.6356    3.2794 H   0  0  0  0  0  0  0  0  0  0  0  0
    6.4421  -11.0637    3.4407 H   0  0  0  0  0  0  0  0  0  0  0  0
    4.9626  -12.1749    1.7637 H   0  0  0  0  0  0  0  0  0  0  0  0
    3.9707  -10.8257   -0.0889 H   0  0  0  0  0  0  0  0  0  0  0  0
    4.4758   -8.4105   -0.2794 H   0  0  0  0  0  0  0  0  0  0  0  0
    2.7748   -4.5742    0.3128 H   0  0  0  0  0  0  0  0  0  0  0  0
    1.4897   -2.5448   -0.1073 H   0  0  0  0  0  0  0  0  0  0  0  0
  1  2  1  0
  1 27  1  0
  1 28  1  0
  1 29  1  0
  2  3  1  0
  3  4  2  0
  3 26  1  0
  4  5  1  0
  4 30  1  0
  5  6  2  0
  5 31  1  0
  6  7  1  0
  6 25  1  0
  7  8  2  0
  7 23  1  0
  8  9  1  0
  9 10  1  0
  9 16  2  0
 10 11  2  0
 10 15  1  0
 11 12  1  0
 11 32  1  0
 12 13  2  0
 12 33  1  0
 13 14  1  0
 13 34  1  0
 14 15  2  0
 14 35  1  0
 15 36  1  0
 16 17  1  0
 16 23  1  0
 17 18  2  0
 17 22  1  0
 18 19  1  0
 18 37  1  0
 19 20  2  0
 19 38  1  0
 20 21  1  0
 20 39  1  0
 21 22  2  0
 21 40  1  0
 22 41  1  0
 23 24  1  0
 25 26  2  0
 25 42  1  0
 26 43  1  0
M  END

