
     RDKit          3D

106114  0  0  0  0  0  0  0  0999 V2000
    0.7696   -0.3419    0.9535 C   0  0  0  0  0  0  0  0  0  0  0  0
    2.1289   -0.3828    0.5833 O   0  0  0  0  0  0  0  0  0  0  0  0
    2.7069   -1.5815    0.3230 C   0  0  0  0  0  0  0  0  0  0  0  0
    4.0827   -1.5187   -0.0435 C   0  0  0  0  0  0  0  0  0  0  0  0
    4.7792   -2.6667   -0.3316 C   0  0  0  0  0  0  0  0  0  0  0  0
    4.1516   -3.9461   -0.2727 C   0  0  0  0  0  0  0  0  0  0  0  0
    4.8439   -5.1477   -0.5643 C   0  0  0  0  0  0  0  0  0  0  0  0
    4.2254   -6.3937   -0.5049 C   0  0  0  0  0  0  0  0  0  0  0  0
    4.9998   -7.5937   -0.8180 C   0  0  0  0  0  0  0  0  0  0  0  0
    4.5637   -8.8718   -0.8096 C   0  0  0  0  0  0  0  0  0  0  0  0
    5.4069  -10.0305   -1.1349 C   0  0  0  0  0  0  0  0  0  0  0  0
    6.6942   -9.8168   -1.4628 N   0  0  0  0  0  0  0  0  0  0  0  0
    7.4563  -10.8823   -1.7521 C   0  0  0  0  0  0  0  0  0  0  0  0
    8.8503  -10.5915   -2.1066 C   0  0  0  0  0  0  0  0  0  0  0  0
    9.8066  -11.4961   -2.4147 C   0  0  0  0  0  0  0  0  0  0  0  0
   11.1967  -11.2262   -2.7774 C   0  0  0  0  0  0  0  0  0  0  0  0
   11.7337   -9.9261   -2.9030 C   0  0  0  0  0  0  0  0  0  0  0  0
   13.0601   -9.7187   -3.2565 C   0  0  0  0  0  0  0  0  0  0  0  0
   13.9274  -10.8080   -3.4933 C   0  0  0  0  0  0  0  0  0  0  0  0
   15.2761  -10.5958   -3.8513 N   0  0  0  0  0  0  0  0  0  0  0  0
   16.0056   -9.5065   -3.2983 C   0  0  0  0  0  0  0  0  0  0  0  0
   15.9261   -9.2132   -1.9250 C   0  0  0  0  0  0  0  0  0  0  0  0
   16.6413   -8.1399   -1.3909 C   0  0  0  0  0  0  0  0  0  0  0  0
   17.4596   -7.3537   -2.2085 C   0  0  0  0  0  0  0  0  0  0  0  0
   17.5495   -7.6489   -3.5727 C   0  0  0  0  0  0  0  0  0  0  0  0
   16.8248   -8.7099   -4.1181 C   0  0  0  0  0  0  0  0  0  0  0  0
   15.9241  -11.4709   -4.7672 C   0  0  0  0  0  0  0  0  0  0  0  0
   15.2809  -11.8737   -5.9515 C   0  0  0  0  0  0  0  0  0  0  0  0
   15.9215  -12.7346   -6.8440 C   0  0  0  0  0  0  0  0  0  0  0  0
   17.2167  -13.1940   -6.5831 C   0  0  0  0  0  0  0  0  0  0  0  0
   17.8637  -12.7870   -5.4120 C   0  0  0  0  0  0  0  0  0  0  0  0
   17.2239  -11.9394   -4.5058 C   0  0  0  0  0  0  0  0  0  0  0  0
   13.4046  -12.1095   -3.3668 C   0  0  0  0  0  0  0  0  0  0  0  0
   12.0703  -12.3049   -3.0247 C   0  0  0  0  0  0  0  0  0  0  0  0
    6.9089  -12.1794   -1.7089 C   0  0  0  0  0  0  0  0  0  0  0  0
    5.5573  -12.3132   -1.3626 C   0  0  0  0  0  0  0  0  0  0  0  0
    4.9310  -13.6380   -1.3105 C   0  0  0  0  0  0  0  0  0  0  0  0
    3.6273  -13.8344   -1.0101 C   0  0  0  0  0  0  0  0  0  0  0  0
    2.9076  -15.1027   -0.9378 C   0  0  0  0  0  0  0  0  0  0  0  0
    3.5087  -16.3615   -1.1595 C   0  0  0  0  0  0  0  0  0  0  0  0
    2.7776  -17.5398   -1.0872 C   0  0  0  0  0  0  0  0  0  0  0  0
    1.4004  -17.5197   -0.7775 C   0  0  0  0  0  0  0  0  0  0  0  0
    0.6575  -18.7193   -0.7033 N   0  0  0  0  0  0  0  0  0  0  0  0
    1.2442  -19.8939   -0.1573 C   0  0  0  0  0  0  0  0  0  0  0  0
    2.0121  -19.8307    1.0198 C   0  0  0  0  0  0  0  0  0  0  0  0
    2.5897  -20.9861    1.5486 C   0  0  0  0  0  0  0  0  0  0  0  0
    2.3997  -22.2246    0.9272 C   0  0  0  0  0  0  0  0  0  0  0  0
    1.6285  -22.2935   -0.2375 C   0  0  0  0  0  0  0  0  0  0  0  0
    1.0609  -21.1406   -0.7825 C   0  0  0  0  0  0  0  0  0  0  0  0
   -0.6847  -18.7616   -1.1722 C   0  0  0  0  0  0  0  0  0  0  0  0
   -1.0346  -18.1644   -2.3968 C   0  0  0  0  0  0  0  0  0  0  0  0
   -2.3536  -18.2077   -2.8511 C   0  0  0  0  0  0  0  0  0  0  0  0
   -3.3416  -18.8590   -2.1054 C   0  0  0  0  0  0  0  0  0  0  0  0
   -2.9959  -19.4621   -0.8918 C   0  0  0  0  0  0  0  0  0  0  0  0
   -1.6825  -19.4092   -0.4219 C   0  0  0  0  0  0  0  0  0  0  0  0
    0.7899  -16.2719   -0.5487 C   0  0  0  0  0  0  0  0  0  0  0  0
    1.5303  -15.0969   -0.6336 C   0  0  0  0  0  0  0  0  0  0  0  0
    4.8119  -11.2286   -1.0759 N   0  0  0  0  0  0  0  0  0  0  0  0
    2.8446   -6.4362   -0.1350 C   0  0  0  0  0  0  0  0  0  0  0  0
    2.1460   -5.2879    0.1537 C   0  0  0  0  0  0  0  0  0  0  0  0
    2.7682   -4.0065    0.0964 C   0  0  0  0  0  0  0  0  0  0  0  0
    2.0629   -2.8074    0.3912 C   0  0  0  0  0  0  0  0  0  0  0  0
    0.5184    0.7155    1.1117 H   0  0  0  0  0  0  0  0  0  0  0  0
    0.5825   -0.8992    1.8893 H   0  0  0  0  0  0  0  0  0  0  0  0
    0.1166   -0.7515    0.1616 H   0  0  0  0  0  0  0  0  0  0  0  0
    4.5545   -0.5349   -0.0858 H   0  0  0  0  0  0  0  0  0  0  0  0
    5.8344   -2.6086   -0.6123 H   0  0  0  0  0  0  0  0  0  0  0  0
    5.8995   -5.0883   -0.8452 H   0  0  0  0  0  0  0  0  0  0  0  0
    6.0488   -7.4354   -1.0881 H   0  0  0  0  0  0  0  0  0  0  0  0
    3.5345   -9.1324   -0.5533 H   0  0  0  0  0  0  0  0  0  0  0  0
    9.0737   -9.5215   -2.1007 H   0  0  0  0  0  0  0  0  0  0  0  0
    9.5448  -12.5596   -2.3987 H   0  0  0  0  0  0  0  0  0  0  0  0
   11.0947   -9.0561   -2.7383 H   0  0  0  0  0  0  0  0  0  0  0  0
   13.4377   -8.7003   -3.3610 H   0  0  0  0  0  0  0  0  0  0  0  0
   15.3002   -9.8318   -1.2790 H   0  0  0  0  0  0  0  0  0  0  0  0
   16.5678   -7.9258   -0.3215 H   0  0  0  0  0  0  0  0  0  0  0  0
   18.0232   -6.5187   -1.7859 H   0  0  0  0  0  0  0  0  0  0  0  0
   18.1809   -7.0395   -4.2246 H   0  0  0  0  0  0  0  0  0  0  0  0
   16.8889   -8.9284   -5.1857 H   0  0  0  0  0  0  0  0  0  0  0  0
   14.2758  -11.5068   -6.1682 H   0  0  0  0  0  0  0  0  0  0  0  0
   15.4071  -13.0371   -7.7599 H   0  0  0  0  0  0  0  0  0  0  0  0
   17.7178  -13.8622   -7.2873 H   0  0  0  0  0  0  0  0  0  0  0  0
   18.8741  -13.1420   -5.1927 H   0  0  0  0  0  0  0  0  0  0  0  0
   17.7289  -11.6340   -3.5875 H   0  0  0  0  0  0  0  0  0  0  0  0
   14.0531  -12.9704   -3.5366 H   0  0  0  0  0  0  0  0  0  0  0  0
   11.6925  -13.3271   -2.9304 H   0  0  0  0  0  0  0  0  0  0  0  0
    7.5061  -13.0619   -1.9412 H   0  0  0  0  0  0  0  0  0  0  0  0
    5.5893  -14.4814   -1.5386 H   0  0  0  0  0  0  0  0  0  0  0  0
    3.0414  -12.9338   -0.7997 H   0  0  0  0  0  0  0  0  0  0  0  0
    4.5704  -16.4209   -1.4086 H   0  0  0  0  0  0  0  0  0  0  0  0
    3.2697  -18.4951   -1.2772 H   0  0  0  0  0  0  0  0  0  0  0  0
    2.1526  -18.8695    1.5181 H   0  0  0  0  0  0  0  0  0  0  0  0
    3.1830  -20.9177    2.4642 H   0  0  0  0  0  0  0  0  0  0  0  0
    2.8477  -23.1281    1.3474 H   0  0  0  0  0  0  0  0  0  0  0  0
    1.4757  -23.2537   -0.7373 H   0  0  0  0  0  0  0  0  0  0  0  0
    0.4701  -21.1997   -1.6986 H   0  0  0  0  0  0  0  0  0  0  0  0
   -0.2653  -17.6670   -2.9906 H   0  0  0  0  0  0  0  0  0  0  0  0
   -2.6075  -17.7386   -3.8053 H   0  0  0  0  0  0  0  0  0  0  0  0
   -4.3718  -18.8965   -2.4672 H   0  0  0  0  0  0  0  0  0  0  0  0
   -3.7587  -19.9695   -0.2954 H   0  0  0  0  0  0  0  0  0  0  0  0
   -1.4210  -19.8711    0.5321 H   0  0  0  0  0  0  0  0  0  0  0  0
   -0.2715  -16.2292   -0.2992 H   0  0  0  0  0  0  0  0  0  0  0  0
    1.0341  -14.1405   -0.4473 H   0  0  0  0  0  0  0  0  0  0  0  0
    2.3340   -7.3995   -0.0803 H   0  0  0  0  0  0  0  0  0  0  0  0
    1.0907   -5.3479    0.4345 H   0  0  0  0  0  0  0  0  0  0  0  0
    1.0113   -2.8805    0.6698 H   0  0  0  0  0  0  0  0  0  0  0  0
  1  2  1  0
  1 63  1  0
  1 64  1  0
  1 65  1  0
  2  3  1  0
  3  4  2  0
  3 62  1  0
  4  5  1  0
  4 66  1  0
  5  6  2  0
  5 67  1  0
  6  7  1  0
  6 61  1  0
  7  8  2  0
  7 68  1  0
  8  9  1  0
  8 59  1  0
  9 10  2  0
  9 69  1  0
 10 11  1  0
 10 70  1  0
 11 12  2  0
 11 58  1  0
 12 13  1  0
 13 14  1  0
 13 35  2  0
 14 15  2  0
 14 71  1  0
 15 16  1  0
 15 72  1  0
 16 17  2  0
 16 34  1  0
 17 18  1  0
 17 73  1  0
 18 19  2  0
 18 74  1  0
 19 20  1  0
 19 33  1  0
 20 21  1  0
 20 27  1  0
 21 22  2  0
 21 26  1  0
 22 23  1  0
 22 75  1  0
 23 24  2  0
 23 76  1  0
 24 25  1  0
 24 77  1  0
 25 26  2  0
 25 78  1  0
 26 79  1  0
 27 28  2  0
 27 32  1  0
 28 29  1  0
 28 80  1  0
 29 30  2  0
 29 81  1  0
 30 31  1  0
 30 82  1  0
 31 32  2  0
 31 83  1  0
 32 84  1  0
 33 34  2  0
 33 85  1  0
 34 86  1  0
 35 36  1  0
 35 87  1  0
 36 37  1  0
 36 58  2  0
 37 38  2  0
 37 88  1  0
 38 39  1  0
 38 89  1  0
 39 40  2  0
 39 57  1  0
 40 41  1  0
 40 90  1  0
 41 42  2  0
 41 91  1  0
 42 43  1  0
 42 56  1  0
 43 44  1  0
 43 50  1  0
 44 45  2  0
 44 49  1  0
 45 46  1  0
 45 92  1  0
 46 47  2  0
 46 93  1  0
 47 48  1  0
 47 94  1  0
 48 49  2  0
 48 95  1  0
 49 96  1  0
 50 51  2  0
 50 55  1  0
 51 52  1  0
 51 97  1  0
 52 53  2  0
 52 98  1  0
 53 54  1  0
 53 99  1  0
 54 55  2  0
 54100  1  0
 55101  1  0
 56 57  2  0
 56102  1  0
 57103  1  0
 59 60  2  0
 59104  1  0
 60 61  1  0
 60105  1  0
 61 62  2  0
 62106  1  0
M  END

