
     RDKit          3D

 42 45  0  0  0  0  0  0  0  0999 V2000
    4.0999    1.0224    0.5974 C   0  0  0  0  0  0  0  0  0  0  0  0
    3.2276   -0.0839    0.5406 O   0  0  0  0  0  0  0  0  0  0  0  0
    3.5935   -1.1844   -0.1618 C   0  0  0  0  0  0  0  0  0  0  0  0
    2.6696   -2.2432   -0.1834 C   0  0  0  0  0  0  0  0  0  0  0  0
    2.9571   -3.4166   -0.8719 C   0  0  0  0  0  0  0  0  0  0  0  0
    4.1813   -3.5814   -1.5549 C   0  0  0  0  0  0  0  0  0  0  0  0
    4.5296   -4.7796   -2.3316 C   0  0  0  0  0  0  0  0  0  0  0  0
    5.2462   -4.7580   -3.4450 N   0  0  0  0  0  0  0  0  0  0  0  0
    5.4021   -6.0335   -3.8925 C   0  0  0  0  0  0  0  0  0  0  0  0
    6.1385   -6.3188   -5.1333 C   0  0  0  0  0  0  0  0  0  0  0  0
    6.7327   -7.5641   -5.4055 C   0  0  0  0  0  0  0  0  0  0  0  0
    7.4191   -7.7884   -6.6018 C   0  0  0  0  0  0  0  0  0  0  0  0
    7.5514   -6.7823   -7.5685 C   0  0  0  0  0  0  0  0  0  0  0  0
    8.2916   -7.0183   -8.8622 C   0  0  0  0  0  0  0  0  0  0  0  0
    6.9740   -5.5313   -7.2854 C   0  0  0  0  0  0  0  0  0  0  0  0
    6.2858   -5.3008   -6.0981 C   0  0  0  0  0  0  0  0  0  0  0  0
    4.7377   -6.9119   -3.0166 C   0  0  0  0  0  0  0  0  0  0  0  0
    4.4761   -8.3057   -2.9508 C   0  0  0  0  0  0  0  0  0  0  0  0
    3.7851   -8.8304   -1.8861 C   0  0  0  0  0  0  0  0  0  0  0  0
    3.3442   -7.9680   -0.8325 C   0  0  0  0  0  0  0  0  0  0  0  0
    3.5545   -6.6220   -0.9057 C   0  0  0  0  0  0  0  0  0  0  0  0
    4.1987   -6.0837   -2.0042 N   0  0  0  0  0  0  0  0  0  0  0  0
    5.0856   -2.5051   -1.5417 C   0  0  0  0  0  0  0  0  0  0  0  0
    4.8062   -1.3217   -0.8573 C   0  0  0  0  0  0  0  0  0  0  0  0
    3.6003    1.7836    1.2117 H   0  0  0  0  0  0  0  0  0  0  0  0
    4.2960    1.4446   -0.4048 H   0  0  0  0  0  0  0  0  0  0  0  0
    5.0656    0.7615    1.0670 H   0  0  0  0  0  0  0  0  0  0  0  0
    1.7197   -2.1125    0.3388 H   0  0  0  0  0  0  0  0  0  0  0  0
    2.1955   -4.1978   -0.9070 H   0  0  0  0  0  0  0  0  0  0  0  0
    6.6938   -8.3640   -4.6641 H   0  0  0  0  0  0  0  0  0  0  0  0
    7.8730   -8.7677   -6.7805 H   0  0  0  0  0  0  0  0  0  0  0  0
    8.6666   -8.0504   -8.9321 H   0  0  0  0  0  0  0  0  0  0  0  0
    9.1561   -6.3399   -8.9613 H   0  0  0  0  0  0  0  0  0  0  0  0
    7.6424   -6.8371   -9.7357 H   0  0  0  0  0  0  0  0  0  0  0  0
    7.0650   -4.7211   -8.0158 H   0  0  0  0  0  0  0  0  0  0  0  0
    5.8450   -4.3240   -5.8919 H   0  0  0  0  0  0  0  0  0  0  0  0
    4.8279   -8.9443   -3.7607 H   0  0  0  0  0  0  0  0  0  0  0  0
    3.5772   -9.9008   -1.8345 H   0  0  0  0  0  0  0  0  0  0  0  0
    2.8357   -8.3743    0.0433 H   0  0  0  0  0  0  0  0  0  0  0  0
    3.2531   -5.9230   -0.1282 H   0  0  0  0  0  0  0  0  0  0  0  0
    6.0244   -2.6087   -2.0887 H   0  0  0  0  0  0  0  0  0  0  0  0
    5.5405   -0.5159   -0.8704 H   0  0  0  0  0  0  0  0  0  0  0  0
  1  2  1  0
  1 25  1  0
  1 26  1  0
  1 27  1  0
  2  3  1  0
  3  4  2  0
  3 24  1  0
  4  5  1  0
  4 28  1  0
  5  6  2  0
  5 29  1  0
  6  7  1  0
  6 23  1  0
  7  8  2  0
  7 22  1  0
  8  9  1  0
  9 10  1  0
  9 17  2  0
 10 11  2  0
 10 16  1  0
 11 12  1  0
 11 30  1  0
 12 13  2  0
 12 31  1  0
 13 14  1  0
 13 15  1  0
 14 32  1  0
 14 33  1  0
 14 34  1  0
 15 16  2  0
 15 35  1  0
 16 36  1  0
 17 18  1  0
 17 22  1  0
 18 19  2  0
 18 37  1  0
 19 20  1  0
 19 38  1  0
 20 21  2  0
 20 39  1  0
 21 22  1  0
 21 40  1  0
 23 24  2  0
 23 41  1  0
 24 42  1  0
M  END

