
     RDKit          3D

141147  0  0  0  0  0  0  0  0999 V2000
   15.1641   -4.6016    0.3910 C   0  0  0  0  0  0  0  0  0  0  0  0
   15.0638   -3.3268    1.2298 C   0  0  0  0  0  0  0  0  0  0  0  0
   14.6788   -2.0865    0.4173 C   0  0  0  0  0  0  0  0  0  0  0  0
   14.5755   -0.8056    1.2501 C   0  0  0  0  0  0  0  0  0  0  0  0
   14.1859    0.4342    0.4387 C   0  0  0  0  0  0  0  0  0  0  0  0
   14.0864    1.7112    1.2809 C   0  0  0  0  0  0  0  0  0  0  0  0
   13.7609    2.9892    0.4918 C   0  0  0  0  0  0  0  0  0  0  0  0
   12.3750    3.0504   -0.1691 C   0  0  0  0  0  0  0  0  0  0  0  0
   11.1797    3.1517    0.7911 C   0  0  0  0  0  0  0  0  0  0  0  0
   11.1679    4.3549    1.6247 N   0  0  0  0  0  0  0  0  0  0  0  0
   11.0947    5.6937    1.2432 C   0  0  0  0  0  0  0  0  0  0  0  0
   10.8255    6.2086   -0.1158 C   0  0  0  0  0  0  0  0  0  0  0  0
   10.0054    5.5697   -1.0545 C   0  0  0  0  0  0  0  0  0  0  0  0
    9.7666    6.1472   -2.3162 C   0  0  0  0  0  0  0  0  0  0  0  0
    8.8885    5.4197   -3.2564 C   0  0  0  0  0  0  0  0  0  0  0  0
    7.8370    4.7390   -2.8505 N   0  0  0  0  0  0  0  0  0  0  0  0
    7.2639    4.2193   -3.9887 C   0  0  0  0  0  0  0  0  0  0  0  0
    6.1108    3.4324   -4.1488 C   0  0  0  0  0  0  0  0  0  0  0  0
    5.7487    3.0505   -5.4348 C   0  0  0  0  0  0  0  0  0  0  0  0
    6.5007    3.4304   -6.5777 C   0  0  0  0  0  0  0  0  0  0  0  0
    6.0445    2.9909   -7.9491 C   0  0  0  0  0  0  0  0  0  0  0  0
    7.6490    4.2128   -6.4223 C   0  0  0  0  0  0  0  0  0  0  0  0
    8.0171    4.6000   -5.1257 C   0  0  0  0  0  0  0  0  0  0  0  0
    9.0631    5.3721   -4.6376 N   0  0  0  0  0  0  0  0  0  0  0  0
   10.2176    5.8055   -5.4294 C   0  0  0  0  0  0  0  0  0  0  0  0
   11.4977    4.9959   -5.1698 C   0  0  0  0  0  0  0  0  0  0  0  0
   11.4360    3.5033   -5.5253 C   0  0  0  0  0  0  0  0  0  0  0  0
   11.4396    3.2056   -7.0303 C   0  0  0  0  0  0  0  0  0  0  0  0
   11.2465    1.7251   -7.3931 C   0  0  0  0  0  0  0  0  0  0  0  0
   12.3058    0.7454   -6.8589 C   0  0  0  0  0  0  0  0  0  0  0  0
   13.7760    0.9726   -7.2558 C   0  0  0  0  0  0  0  0  0  0  0  0
   14.1502    0.7406   -8.7323 C   0  0  0  0  0  0  0  0  0  0  0  0
   13.8761    1.8999   -9.6959 C   0  0  0  0  0  0  0  0  0  0  0  0
   10.3027    7.4077   -2.6021 C   0  0  0  0  0  0  0  0  0  0  0  0
   11.1026    8.0823   -1.6620 C   0  0  0  0  0  0  0  0  0  0  0  0
   11.6604    9.3932   -2.0507 C   0  0  0  0  0  0  0  0  0  0  0  0
   12.0529    9.6408   -3.2835 N   0  0  0  0  0  0  0  0  0  0  0  0
   12.5421   10.9268   -3.2683 C   0  0  0  0  0  0  0  0  0  0  0  0
   13.1092   11.6996   -4.2957 C   0  0  0  0  0  0  0  0  0  0  0  0
   13.5375   12.9860   -3.9911 C   0  0  0  0  0  0  0  0  0  0  0  0
   13.4239   13.5350   -2.6863 C   0  0  0  0  0  0  0  0  0  0  0  0
   13.9166   14.9385   -2.4230 C   0  0  0  0  0  0  0  0  0  0  0  0
   12.8602   12.7700   -1.6607 C   0  0  0  0  0  0  0  0  0  0  0  0
   12.4268   11.4722   -1.9671 C   0  0  0  0  0  0  0  0  0  0  0  0
   11.8513   10.4748   -1.1934 N   0  0  0  0  0  0  0  0  0  0  0  0
   11.3588   10.6908    0.1684 C   0  0  0  0  0  0  0  0  0  0  0  0
   10.1152   11.5921    0.2492 C   0  0  0  0  0  0  0  0  0  0  0  0
    8.8313   11.0112   -0.3586 C   0  0  0  0  0  0  0  0  0  0  0  0
    8.2242    9.8332    0.4129 C   0  0  0  0  0  0  0  0  0  0  0  0
    6.9241    9.3062   -0.2032 C   0  0  0  0  0  0  0  0  0  0  0  0
    6.3342    8.1088    0.5508 C   0  0  0  0  0  0  0  0  0  0  0  0
    4.9925    7.5934    0.0117 C   0  0  0  0  0  0  0  0  0  0  0  0
    5.0398    7.0096   -1.4055 C   0  0  0  0  0  0  0  0  0  0  0  0
    3.7054    6.4121   -1.8553 C   0  0  0  0  0  0  0  0  0  0  0  0
   11.3834    7.4605   -0.4408 C   0  0  0  0  0  0  0  0  0  0  0  0
   11.2833    6.5194    2.2534 N   0  0  0  0  0  0  0  0  0  0  0  0
   11.4787    5.7276    3.3587 C   0  0  0  0  0  0  0  0  0  0  0  0
   11.7084    6.0787    4.7000 C   0  0  0  0  0  0  0  0  0  0  0  0
   11.8642    5.0586    5.6296 C   0  0  0  0  0  0  0  0  0  0  0  0
   11.7952    3.6873    5.2668 C   0  0  0  0  0  0  0  0  0  0  0  0
   11.9649    2.6266    6.3288 C   0  0  0  0  0  0  0  0  0  0  0  0
   11.5663    3.3341    3.9338 C   0  0  0  0  0  0  0  0  0  0  0  0
   11.4117    4.3617    2.9920 C   0  0  0  0  0  0  0  0  0  0  0  0
   15.4432   -5.4716    1.0068 H   0  0  0  0  0  0  0  0  0  0  0  0
   15.9222   -4.5000   -0.4037 H   0  0  0  0  0  0  0  0  0  0  0  0
   14.2041   -4.8358   -0.0994 H   0  0  0  0  0  0  0  0  0  0  0  0
   16.0282   -3.1423    1.7376 H   0  0  0  0  0  0  0  0  0  0  0  0
   14.3245   -3.4739    2.0383 H   0  0  0  0  0  0  0  0  0  0  0  0
   13.7138   -2.2704   -0.0916 H   0  0  0  0  0  0  0  0  0  0  0  0
   15.4182   -1.9373   -0.3918 H   0  0  0  0  0  0  0  0  0  0  0  0
   15.5409   -0.6206    1.7570 H   0  0  0  0  0  0  0  0  0  0  0  0
   13.8382   -0.9564    2.0608 H   0  0  0  0  0  0  0  0  0  0  0  0
   13.2251    0.2379   -0.0709 H   0  0  0  0  0  0  0  0  0  0  0  0
   14.9256    0.5891   -0.3691 H   0  0  0  0  0  0  0  0  0  0  0  0
   15.0475    1.8662    1.8023 H   0  0  0  0  0  0  0  0  0  0  0  0
   13.3454    1.5616    2.0866 H   0  0  0  0  0  0  0  0  0  0  0  0
   14.5205    3.1164   -0.2997 H   0  0  0  0  0  0  0  0  0  0  0  0
   13.8784    3.8619    1.1570 H   0  0  0  0  0  0  0  0  0  0  0  0
   12.2096    2.1582   -0.7973 H   0  0  0  0  0  0  0  0  0  0  0  0
   12.3448    3.9077   -0.8601 H   0  0  0  0  0  0  0  0  0  0  0  0
   11.1708    2.2963    1.4804 H   0  0  0  0  0  0  0  0  0  0  0  0
   10.2403    3.0862    0.2239 H   0  0  0  0  0  0  0  0  0  0  0  0
    9.5065    4.6283   -0.8322 H   0  0  0  0  0  0  0  0  0  0  0  0
    5.5227    3.1374   -3.2774 H   0  0  0  0  0  0  0  0  0  0  0  0
    4.8534    2.4388   -5.5787 H   0  0  0  0  0  0  0  0  0  0  0  0
    5.0381    3.3795   -8.1798 H   0  0  0  0  0  0  0  0  0  0  0  0
    5.9856    1.8916   -8.0199 H   0  0  0  0  0  0  0  0  0  0  0  0
    6.7270    3.3414   -8.7376 H   0  0  0  0  0  0  0  0  0  0  0  0
    8.2277    4.5139   -7.2982 H   0  0  0  0  0  0  0  0  0  0  0  0
   10.4182    6.8685   -5.2417 H   0  0  0  0  0  0  0  0  0  0  0  0
    9.9178    5.7360   -6.4845 H   0  0  0  0  0  0  0  0  0  0  0  0
   11.7677    5.1124   -4.1077 H   0  0  0  0  0  0  0  0  0  0  0  0
   12.3106    5.4810   -5.7391 H   0  0  0  0  0  0  0  0  0  0  0  0
   10.5428    3.0487   -5.0598 H   0  0  0  0  0  0  0  0  0  0  0  0
   12.3013    3.0073   -5.0544 H   0  0  0  0  0  0  0  0  0  0  0  0
   12.3794    3.5851   -7.4699 H   0  0  0  0  0  0  0  0  0  0  0  0
   10.6340    3.7787   -7.5212 H   0  0  0  0  0  0  0  0  0  0  0  0
   11.1787    1.6366   -8.4903 H   0  0  0  0  0  0  0  0  0  0  0  0
   10.2615    1.3993   -7.0128 H   0  0  0  0  0  0  0  0  0  0  0  0
   12.0164   -0.2744   -7.1714 H   0  0  0  0  0  0  0  0  0  0  0  0
   12.2514    0.7339   -5.7560 H   0  0  0  0  0  0  0  0  0  0  0  0
   14.3786    0.2782   -6.6449 H   0  0  0  0  0  0  0  0  0  0  0  0
   14.1045    1.9835   -6.9506 H   0  0  0  0  0  0  0  0  0  0  0  0
   13.6418   -0.1723   -9.0943 H   0  0  0  0  0  0  0  0  0  0  0  0
   15.2295    0.5119   -8.7777 H   0  0  0  0  0  0  0  0  0  0  0  0
   12.8043    2.1315   -9.7870 H   0  0  0  0  0  0  0  0  0  0  0  0
   14.2465    1.6663  -10.7074 H   0  0  0  0  0  0  0  0  0  0  0  0
   14.3860    2.8203   -9.3644 H   0  0  0  0  0  0  0  0  0  0  0  0
   10.0916    7.9122   -3.5432 H   0  0  0  0  0  0  0  0  0  0  0  0
   13.2062   11.2877   -5.3025 H   0  0  0  0  0  0  0  0  0  0  0  0
   13.9802   13.6024   -4.7791 H   0  0  0  0  0  0  0  0  0  0  0  0
   14.9963   15.0307   -2.6308 H   0  0  0  0  0  0  0  0  0  0  0  0
   13.7503   15.2393   -1.3780 H   0  0  0  0  0  0  0  0  0  0  0  0
   13.4042   15.6716   -3.0689 H   0  0  0  0  0  0  0  0  0  0  0  0
   12.7705   13.1813   -0.6528 H   0  0  0  0  0  0  0  0  0  0  0  0
   12.1802   11.1415    0.7494 H   0  0  0  0  0  0  0  0  0  0  0  0
   11.1517    9.7184    0.6276 H   0  0  0  0  0  0  0  0  0  0  0  0
   10.3433   12.5575   -0.2312 H   0  0  0  0  0  0  0  0  0  0  0  0
    9.9472   11.8139    1.3183 H   0  0  0  0  0  0  0  0  0  0  0  0
    9.0210   10.7121   -1.4054 H   0  0  0  0  0  0  0  0  0  0  0  0
    8.0827   11.8210   -0.4175 H   0  0  0  0  0  0  0  0  0  0  0  0
    8.0345   10.1435    1.4576 H   0  0  0  0  0  0  0  0  0  0  0  0
    8.9488    9.0025    0.4756 H   0  0  0  0  0  0  0  0  0  0  0  0
    7.1154    9.0288   -1.2547 H   0  0  0  0  0  0  0  0  0  0  0  0
    6.1773   10.1222   -0.2371 H   0  0  0  0  0  0  0  0  0  0  0  0
    6.2062    8.3878    1.6126 H   0  0  0  0  0  0  0  0  0  0  0  0
    7.0686    7.2824    0.5443 H   0  0  0  0  0  0  0  0  0  0  0  0
    4.2458    8.4100    0.0471 H   0  0  0  0  0  0  0  0  0  0  0  0
    4.6147    6.8157    0.7005 H   0  0  0  0  0  0  0  0  0  0  0  0
    5.8281    6.2378   -1.4602 H   0  0  0  0  0  0  0  0  0  0  0  0
    5.3411    7.7938   -2.1224 H   0  0  0  0  0  0  0  0  0  0  0  0
    3.3851    5.5963   -1.1846 H   0  0  0  0  0  0  0  0  0  0  0  0
    3.7722    5.9970   -2.8737 H   0  0  0  0  0  0  0  0  0  0  0  0
    2.9023    7.1692   -1.8548 H   0  0  0  0  0  0  0  0  0  0  0  0
   12.0474    7.9213    0.2887 H   0  0  0  0  0  0  0  0  0  0  0  0
   11.7584    7.1305    4.9896 H   0  0  0  0  0  0  0  0  0  0  0  0
   12.0436    5.3127    6.6783 H   0  0  0  0  0  0  0  0  0  0  0  0
   12.9420    2.7167    6.8331 H   0  0  0  0  0  0  0  0  0  0  0  0
   11.8982    1.6129    5.9067 H   0  0  0  0  0  0  0  0  0  0  0  0
   11.1926    2.7155    7.1116 H   0  0  0  0  0  0  0  0  0  0  0  0
   11.5045    2.2805    3.6526 H   0  0  0  0  0  0  0  0  0  0  0  0
  1  2  1  0
  1 64  1  0
  1 65  1  0
  1 66  1  0
  2  3  1  0
  2 67  1  0
  2 68  1  0
  3  4  1  0
  3 69  1  0
  3 70  1  0
  4  5  1  0
  4 71  1  0
  4 72  1  0
  5  6  1  0
  5 73  1  0
  5 74  1  0
  6  7  1  0
  6 75  1  0
  6 76  1  0
  7  8  1  0
  7 77  1  0
  7 78  1  0
  8  9  1  0
  8 79  1  0
  8 80  1  0
  9 10  1  0
  9 81  1  0
  9 82  1  0
 10 11  1  0
 10 63  1  0
 11 12  1  0
 11 56  2  0
 12 13  2  0
 12 55  1  0
 13 14  1  0
 13 83  1  0
 14 15  1  0
 14 34  2  0
 15 16  2  0
 15 24  1  0
 16 17  1  0
 17 18  2  0
 17 23  1  0
 18 19  1  0
 18 84  1  0
 19 20  2  0
 19 85  1  0
 20 21  1  0
 20 22  1  0
 21 86  1  0
 21 87  1  0
 21 88  1  0
 22 23  2  0
 22 89  1  0
 23 24  1  0
 24 25  1  0
 25 26  1  0
 25 90  1  0
 25 91  1  0
 26 27  1  0
 26 92  1  0
 26 93  1  0
 27 28  1  0
 27 94  1  0
 27 95  1  0
 28 29  1  0
 28 96  1  0
 28 97  1  0
 29 30  1  0
 29 98  1  0
 29 99  1  0
 30 31  1  0
 30100  1  0
 30101  1  0
 31 32  1  0
 31102  1  0
 31103  1  0
 32 33  1  0
 32104  1  0
 32105  1  0
 33106  1  0
 33107  1  0
 33108  1  0
 34 35  1  0
 34109  1  0
 35 36  1  0
 35 55  2  0
 36 37  2  0
 36 45  1  0
 37 38  1  0
 38 39  2  0
 38 44  1  0
 39 40  1  0
 39110  1  0
 40 41  2  0
 40111  1  0
 41 42  1  0
 41 43  1  0
 42112  1  0
 42113  1  0
 42114  1  0
 43 44  2  0
 43115  1  0
 44 45  1  0
 45 46  1  0
 46 47  1  0
 46116  1  0
 46117  1  0
 47 48  1  0
 47118  1  0
 47119  1  0
 48 49  1  0
 48120  1  0
 48121  1  0
 49 50  1  0
 49122  1  0
 49123  1  0
 50 51  1  0
 50124  1  0
 50125  1  0
 51 52  1  0
 51126  1  0
 51127  1  0
 52 53  1  0
 52128  1  0
 52129  1  0
 53 54  1  0
 53130  1  0
 53131  1  0
 54132  1  0
 54133  1  0
 54134  1  0
 55135  1  0
 56 57  1  0
 57 58  1  0
 57 63  2  0
 58 59  2  0
 58136  1  0
 59 60  1  0
 59137  1  0
 60 61  1  0
 60 62  2  0
 61138  1  0
 61139  1  0
 61140  1  0
 62 63  1  0
 62141  1  0
M  END

