
     RDKit          3D

 51 55  0  0  0  0  0  0  0  0999 V2000
    0.9150    0.4713    0.2879 O   0  0  0  0  0  0  0  0  0  0  0  0
    0.1649    1.3269   -0.3000 C   0  0  0  0  0  0  0  0  0  0  0  0
    0.8372    2.2662   -1.2325 C   0  0  0  0  0  0  0  0  0  0  0  0
    2.1830    2.3176   -1.2924 C   0  0  0  0  0  0  0  0  0  0  0  0
    2.9155    3.1910   -2.2275 C   0  0  0  0  0  0  0  0  0  0  0  0
    2.8081    4.5454   -2.3283 C   0  0  0  0  0  0  0  0  0  0  0  0
    3.6736    4.9731   -3.3507 N   0  0  0  0  0  0  0  0  0  0  0  0
    3.8545    6.2897   -3.8090 C   0  0  0  0  0  0  0  0  0  0  0  0
    3.0532    7.3350   -3.3054 C   0  0  0  0  0  0  0  0  0  0  0  0
    3.2466    8.6315   -3.7735 C   0  0  0  0  0  0  0  0  0  0  0  0
    4.2277    8.8998   -4.7353 C   0  0  0  0  0  0  0  0  0  0  0  0
    5.0214    7.8563   -5.2341 C   0  0  0  0  0  0  0  0  0  0  0  0
    4.8425    6.5556   -4.7799 C   0  0  0  0  0  0  0  0  0  0  0  0
    4.3384    3.9702   -3.8827 N   0  0  0  0  0  0  0  0  0  0  0  0
    3.9122    2.8532   -3.2452 C   0  0  0  0  0  0  0  0  0  0  0  0
    4.4436    1.5734   -3.6346 C   0  0  0  0  0  0  0  0  0  0  0  0
    5.4588    1.5110   -4.6380 C   0  0  0  0  0  0  0  0  0  0  0  0
    5.9685    0.2916   -5.0470 C   0  0  0  0  0  0  0  0  0  0  0  0
    5.4835   -0.8993   -4.4759 C   0  0  0  0  0  0  0  0  0  0  0  0
    4.4826   -0.8581   -3.4903 C   0  0  0  0  0  0  0  0  0  0  0  0
    3.9675    0.3568   -3.0644 C   0  0  0  0  0  0  0  0  0  0  0  0
   -1.2473    1.3732   -0.0641 C   0  0  0  0  0  0  0  0  0  0  0  0
   -1.8169    0.4139    0.8396 C   0  0  0  0  0  0  0  0  0  0  0  0
   -1.0462   -0.4813    1.4499 O   0  0  0  0  0  0  0  0  0  0  0  0
   -3.2159    0.3964    1.0976 C   0  0  0  0  0  0  0  0  0  0  0  0
   -3.8503   -0.5296    1.9691 C   0  0  0  0  0  0  0  0  0  0  0  0
   -5.2239   -0.4836    2.1694 C   0  0  0  0  0  0  0  0  0  0  0  0
   -6.0103    0.4799    1.5137 C   0  0  0  0  0  0  0  0  0  0  0  0
   -5.4049    1.4035    0.6500 C   0  0  0  0  0  0  0  0  0  0  0  0
   -4.0292    1.3576    0.4489 C   0  0  0  0  0  0  0  0  0  0  0  0
   -3.4773    2.2770   -0.3982 O   0  0  0  0  0  0  0  0  0  0  0  0
   -2.1305    2.3542   -0.6971 C   0  0  0  0  0  0  0  0  0  0  0  0
   -1.8223    3.2440   -1.4660 O   0  0  0  0  0  0  0  0  0  0  0  0
    0.2018    2.8943   -1.8575 H   0  0  0  0  0  0  0  0  0  0  0  0
    2.7537    1.6713   -0.6188 H   0  0  0  0  0  0  0  0  0  0  0  0
    2.1945    5.2331   -1.7574 H   0  0  0  0  0  0  0  0  0  0  0  0
    2.2779    7.1428   -2.5653 H   0  0  0  0  0  0  0  0  0  0  0  0
    2.6226    9.4390   -3.3856 H   0  0  0  0  0  0  0  0  0  0  0  0
    4.3740    9.9198   -5.0970 H   0  0  0  0  0  0  0  0  0  0  0  0
    5.7875    8.0630   -5.9844 H   0  0  0  0  0  0  0  0  0  0  0  0
    5.4501    5.7336   -5.1547 H   0  0  0  0  0  0  0  0  0  0  0  0
    5.8179    2.4424   -5.0749 H   0  0  0  0  0  0  0  0  0  0  0  0
    6.7451    0.2520   -5.8135 H   0  0  0  0  0  0  0  0  0  0  0  0
    5.8887   -1.8611   -4.7989 H   0  0  0  0  0  0  0  0  0  0  0  0
    4.1089   -1.7854   -3.0524 H   0  0  0  0  0  0  0  0  0  0  0  0
    3.1912    0.3807   -2.3022 H   0  0  0  0  0  0  0  0  0  0  0  0
   -0.1001   -0.2775    1.1132 H   0  0  0  0  0  0  0  0  0  0  0  0
   -3.2274   -1.2713    2.4707 H   0  0  0  0  0  0  0  0  0  0  0  0
   -5.6971   -1.2029    2.8431 H   0  0  0  0  0  0  0  0  0  0  0  0
   -7.0902    0.5136    1.6737 H   0  0  0  0  0  0  0  0  0  0  0  0
   -5.9841    2.1656    0.1253 H   0  0  0  0  0  0  0  0  0  0  0  0
  1  2  2  0
  2  3  1  0
  2 22  1  0
  3  4  2  0
  3 34  1  0
  4  5  1  0
  4 35  1  0
  5  6  2  0
  5 15  1  0
  6  7  1  0
  6 36  1  0
  7  8  1  0
  7 14  1  0
  8  9  2  0
  8 13  1  0
  9 10  1  0
  9 37  1  0
 10 11  2  0
 10 38  1  0
 11 12  1  0
 11 39  1  0
 12 13  2  0
 12 40  1  0
 13 41  1  0
 14 15  2  0
 15 16  1  0
 16 17  2  0
 16 21  1  0
 17 18  1  0
 17 42  1  0
 18 19  2  0
 18 43  1  0
 19 20  1  0
 19 44  1  0
 20 21  2  0
 20 45  1  0
 21 46  1  0
 22 23  2  0
 22 32  1  0
 23 24  1  0
 23 25  1  0
 24 47  1  0
 25 26  2  0
 25 30  1  0
 26 27  1  0
 26 48  1  0
 27 28  2  0
 27 49  1  0
 28 29  1  0
 28 50  1  0
 29 30  2  0
 29 51  1  0
 30 31  1  0
 31 32  1  0
 32 33  2  0
M  END

