
     RDKit          3D

 13 13  0  0  0  0  0  0  0  0999 V2000
    1.1573    0.0217   -0.0675 N   0  0  0  0  0  0  0  0  0  0  0  0
    2.5064    0.1666    0.0576 C   0  0  0  0  0  0  0  0  0  0  0  0
    3.1846    1.3586    0.1489 C   0  0  0  0  0  0  0  0  0  0  0  0
    4.5911    1.3553    0.2709 C   0  0  0  0  0  0  0  0  0  0  0  0
    5.2076    0.0755    0.2894 N   0  0  0  0  0  0  0  0  0  0  0  0
    6.2123    0.0123    0.3727 H   0  0  0  0  0  0  0  0  0  0  0  0
    4.4624   -1.0459    0.1956 C   0  0  0  0  0  0  0  0  0  0  0  0
    5.3438   -2.6038    0.2318 S   0  0  0  0  0  0  0  0  0  0  0  0
    3.1844   -1.0748    0.0839 N   0  0  0  0  0  0  0  0  0  0  0  0
    0.5346    0.8149   -0.0829 H   0  0  0  0  0  0  0  0  0  0  0  0
    0.7831   -0.9155   -0.1046 H   0  0  0  0  0  0  0  0  0  0  0  0
    2.6485    2.3098    0.1279 H   0  0  0  0  0  0  0  0  0  0  0  0
    5.2348    2.2233    0.3497 H   0  0  0  0  0  0  0  0  0  0  0  0
  1  2  1  0
  1 10  1  0
  1 11  1  0
  2  3  1  0
  2  9  2  0
  3  4  2  0
  3 12  1  0
  4  5  1  0
  4 13  1  0
  5  6  1  0
  5  7  1  0
  7  8  2  0
  7  9  1  0
M  END

