
     RDKit          3D

 42 43  0  0  0  0  0  0  0  0999 V2000
    7.0703   -1.4432   -2.4908 C   0  0  0  0  0  0  0  0  0  0  0  0
    6.0602   -1.4803   -1.5245 O   0  0  0  0  0  0  0  0  0  0  0  0
    6.2453   -0.5793   -0.4683 C   0  0  0  0  0  0  0  0  0  0  0  0
    5.1267   -0.7485    0.5568 C   0  0  0  0  0  0  0  0  0  0  0  0
    5.0802   -2.0397    1.2001 N   0  0  0  0  0  0  0  0  0  0  0  0
    4.0959   -3.0115    0.8885 C   0  0  0  0  0  0  0  0  0  0  0  0
    3.1805   -2.8563    0.0839 O   0  0  0  0  0  0  0  0  0  0  0  0
    4.4542   -4.1366    1.7692 C   0  0  0  0  0  0  0  0  0  0  0  0
    3.7388   -5.3365    1.7797 C   0  0  0  0  0  0  0  0  0  0  0  0
    4.0075   -6.4958    2.6034 C   0  0  0  0  0  0  0  0  0  0  0  0
    5.0655   -6.5572    3.5617 C   0  0  0  0  0  0  0  0  0  0  0  0
    5.2937   -7.6996    4.3416 C   0  0  0  0  0  0  0  0  0  0  0  0
    4.5063   -8.8387    4.2296 C   0  0  0  0  0  0  0  0  0  0  0  0
    3.4458   -8.8133    3.2853 C   0  0  0  0  0  0  0  0  0  0  0  0
    2.6277   -9.9234    3.1267 N   0  0  0  0  0  0  0  0  0  0  0  0
    2.8377  -11.1184    3.9286 C   0  0  0  0  0  0  0  0  0  0  0  0
    1.5433   -9.9276    2.1560 C   0  0  0  0  0  0  0  0  0  0  0  0
    3.2165   -7.6522    2.4958 C   0  0  0  0  0  0  0  0  0  0  0  0
    5.5527   -3.7873    2.5307 N   0  0  0  0  0  0  0  0  0  0  0  0
    5.8991   -2.5620    2.1851 C   0  0  0  0  0  0  0  0  0  0  0  0
    7.0265   -1.8063    2.8037 C   0  0  0  0  0  0  0  0  0  0  0  0
    6.8268   -2.1885   -3.2622 H   0  0  0  0  0  0  0  0  0  0  0  0
    8.0660   -1.6897   -2.0655 H   0  0  0  0  0  0  0  0  0  0  0  0
    7.1502   -0.4478   -2.9771 H   0  0  0  0  0  0  0  0  0  0  0  0
    6.2298    0.4719   -0.8332 H   0  0  0  0  0  0  0  0  0  0  0  0
    7.2376   -0.7331    0.0073 H   0  0  0  0  0  0  0  0  0  0  0  0
    4.1590   -0.6380    0.0423 H   0  0  0  0  0  0  0  0  0  0  0  0
    5.2140    0.0565    1.3073 H   0  0  0  0  0  0  0  0  0  0  0  0
    2.8984   -5.3883    1.0857 H   0  0  0  0  0  0  0  0  0  0  0  0
    5.6962   -5.6715    3.6629 H   0  0  0  0  0  0  0  0  0  0  0  0
    6.1182   -7.6910    5.0594 H   0  0  0  0  0  0  0  0  0  0  0  0
    4.7094   -9.7102    4.8480 H   0  0  0  0  0  0  0  0  0  0  0  0
    2.7473  -10.8907    5.0026 H   0  0  0  0  0  0  0  0  0  0  0  0
    3.8417  -11.5371    3.7533 H   0  0  0  0  0  0  0  0  0  0  0  0
    2.0902  -11.8738    3.6643 H   0  0  0  0  0  0  0  0  0  0  0  0
    0.8106   -9.1367    2.3812 H   0  0  0  0  0  0  0  0  0  0  0  0
    1.0348  -10.8972    2.1815 H   0  0  0  0  0  0  0  0  0  0  0  0
    1.9269   -9.7545    1.1385 H   0  0  0  0  0  0  0  0  0  0  0  0
    2.4013   -7.6383    1.7737 H   0  0  0  0  0  0  0  0  0  0  0  0
    7.4297   -2.4041    3.6317 H   0  0  0  0  0  0  0  0  0  0  0  0
    6.7040   -0.8279    3.2033 H   0  0  0  0  0  0  0  0  0  0  0  0
    7.8481   -1.6069    2.0917 H   0  0  0  0  0  0  0  0  0  0  0  0
  1  2  1  0
  1 22  1  0
  1 23  1  0
  1 24  1  0
  2  3  1  0
  3  4  1  0
  3 25  1  0
  3 26  1  0
  4  5  1  0
  4 27  1  0
  4 28  1  0
  5  6  1  0
  5 20  1  0
  6  7  2  0
  6  8  1  0
  8  9  2  0
  8 19  1  0
  9 10  1  0
  9 29  1  0
 10 11  2  0
 10 18  1  0
 11 12  1  0
 11 30  1  0
 12 13  2  0
 12 31  1  0
 13 14  1  0
 13 32  1  0
 14 15  1  0
 14 18  2  0
 15 16  1  0
 15 17  1  0
 16 33  1  0
 16 34  1  0
 16 35  1  0
 17 36  1  0
 17 37  1  0
 17 38  1  0
 18 39  1  0
 19 20  2  0
 20 21  1  0
 21 40  1  0
 21 41  1  0
 21 42  1  0
M  END

