
     RDKit          3D

 58 62  0  0  0  0  0  0  0  0999 V2000
    1.0527   -0.2550   -0.2966 C   0  0  0  0  0  0  0  0  0  0  0  0
    0.0934    0.5178   -0.8557 C   0  0  0  0  0  0  0  0  0  0  0  0
   -1.3364    0.3450   -0.5999 C   0  0  0  0  0  0  0  0  0  0  0  0
   -2.2858    1.1939   -1.2146 C   0  0  0  0  0  0  0  0  0  0  0  0
   -3.5944    1.0737   -1.0131 N   0  0  0  0  0  0  0  0  0  0  0  0
   -3.9893    0.0999   -0.1897 C   0  0  0  0  0  0  0  0  0  0  0  0
   -3.0613   -0.7498    0.4283 C   0  0  0  0  0  0  0  0  0  0  0  0
   -1.7537   -0.6320    0.2283 N   0  0  0  0  0  0  0  0  0  0  0  0
    2.4967   -0.1671   -0.4915 C   0  0  0  0  0  0  0  0  0  0  0  0
    3.1184    0.7621   -1.3545 C   0  0  0  0  0  0  0  0  0  0  0  0
    4.4976    0.7987   -1.5113 C   0  0  0  0  0  0  0  0  0  0  0  0
    5.3304   -0.0908   -0.7992 C   0  0  0  0  0  0  0  0  0  0  0  0
    6.7354   -0.0451   -0.9562 N   0  0  0  0  0  0  0  0  0  0  0  0
    7.3875    1.2125   -1.1106 C   0  0  0  0  0  0  0  0  0  0  0  0
    7.0830    2.2844   -0.2536 C   0  0  0  0  0  0  0  0  0  0  0  0
    7.7192    3.5165   -0.4145 C   0  0  0  0  0  0  0  0  0  0  0  0
    8.6775    3.6950   -1.4176 C   0  0  0  0  0  0  0  0  0  0  0  0
    8.9888    2.6279   -2.2665 C   0  0  0  0  0  0  0  0  0  0  0  0
    8.3452    1.3976   -2.1229 C   0  0  0  0  0  0  0  0  0  0  0  0
    7.5037   -1.2334   -0.9635 C   0  0  0  0  0  0  0  0  0  0  0  0
    7.0389   -2.3977   -1.6032 C   0  0  0  0  0  0  0  0  0  0  0  0
    7.8055   -3.5587   -1.5987 C   0  0  0  0  0  0  0  0  0  0  0  0
    9.0695   -3.6156   -0.9745 C   0  0  0  0  0  0  0  0  0  0  0  0
    9.8262   -4.8635   -1.0120 C   0  0  0  0  0  0  0  0  0  0  0  0
   11.0491   -5.1059   -0.4872 C   0  0  0  0  0  0  0  0  0  0  0  0
   11.7268   -6.3992   -0.5764 C   0  0  0  0  0  0  0  0  0  0  0  0
   13.0065   -6.5826   -0.0032 C   0  0  0  0  0  0  0  0  0  0  0  0
   13.6599   -7.7390   -0.0588 N   0  0  0  0  0  0  0  0  0  0  0  0
   13.0500   -8.7446   -0.6904 C   0  0  0  0  0  0  0  0  0  0  0  0
   11.7818   -8.5796   -1.2643 C   0  0  0  0  0  0  0  0  0  0  0  0
   11.1270   -7.4255   -1.2099 N   0  0  0  0  0  0  0  0  0  0  0  0
    9.5263   -2.4379   -0.3425 C   0  0  0  0  0  0  0  0  0  0  0  0
    8.7643   -1.2771   -0.3311 C   0  0  0  0  0  0  0  0  0  0  0  0
    4.7246   -1.0166    0.0711 C   0  0  0  0  0  0  0  0  0  0  0  0
    3.3409   -1.0531    0.2105 C   0  0  0  0  0  0  0  0  0  0  0  0
    0.7064   -1.0408    0.3830 H   0  0  0  0  0  0  0  0  0  0  0  0
    0.3553    1.3286   -1.5421 H   0  0  0  0  0  0  0  0  0  0  0  0
   -1.9526    1.9916   -1.8896 H   0  0  0  0  0  0  0  0  0  0  0  0
   -5.0644   -0.0144   -0.0120 H   0  0  0  0  0  0  0  0  0  0  0  0
   -3.3986   -1.5460    1.1030 H   0  0  0  0  0  0  0  0  0  0  0  0
    2.5094    1.4624   -1.9304 H   0  0  0  0  0  0  0  0  0  0  0  0
    4.9457    1.5188   -2.1979 H   0  0  0  0  0  0  0  0  0  0  0  0
    6.3455    2.1451    0.5394 H   0  0  0  0  0  0  0  0  0  0  0  0
    7.4720    4.3404    0.2600 H   0  0  0  0  0  0  0  0  0  0  0  0
    9.1782    4.6587   -1.5367 H   0  0  0  0  0  0  0  0  0  0  0  0
    9.7309    2.7564   -3.0588 H   0  0  0  0  0  0  0  0  0  0  0  0
    8.5805    0.5710   -2.7962 H   0  0  0  0  0  0  0  0  0  0  0  0
    6.0720   -2.3861   -2.1090 H   0  0  0  0  0  0  0  0  0  0  0  0
    7.4253   -4.4495   -2.1061 H   0  0  0  0  0  0  0  0  0  0  0  0
    9.3453   -5.7017   -1.5270 H   0  0  0  0  0  0  0  0  0  0  0  0
   11.5988   -4.3213    0.0413 H   0  0  0  0  0  0  0  0  0  0  0  0
   13.5003   -5.7508    0.5140 H   0  0  0  0  0  0  0  0  0  0  0  0
   13.5736   -9.7055   -0.7460 H   0  0  0  0  0  0  0  0  0  0  0  0
   11.2915   -9.4139   -1.7807 H   0  0  0  0  0  0  0  0  0  0  0  0
   10.4930   -2.4322    0.1658 H   0  0  0  0  0  0  0  0  0  0  0  0
    9.1391   -0.3874    0.1777 H   0  0  0  0  0  0  0  0  0  0  0  0
    5.3465   -1.7079    0.6420 H   0  0  0  0  0  0  0  0  0  0  0  0
    2.8941   -1.7789    0.8954 H   0  0  0  0  0  0  0  0  0  0  0  0
  1  2  2  0
  1  9  1  0
  1 36  1  0
  2  3  1  0
  2 37  1  0
  3  4  2  0
  3  8  1  0
  4  5  1  0
  4 38  1  0
  5  6  2  0
  6  7  1  0
  6 39  1  0
  7  8  2  0
  7 40  1  0
  9 10  2  0
  9 35  1  0
 10 11  1  0
 10 41  1  0
 11 12  2  0
 11 42  1  0
 12 13  1  0
 12 34  1  0
 13 14  1  0
 13 20  1  0
 14 15  2  0
 14 19  1  0
 15 16  1  0
 15 43  1  0
 16 17  2  0
 16 44  1  0
 17 18  1  0
 17 45  1  0
 18 19  2  0
 18 46  1  0
 19 47  1  0
 20 21  2  0
 20 33  1  0
 21 22  1  0
 21 48  1  0
 22 23  2  0
 22 49  1  0
 23 24  1  0
 23 32  1  0
 24 25  2  0
 24 50  1  0
 25 26  1  0
 25 51  1  0
 26 27  2  0
 26 31  1  0
 27 28  1  0
 27 52  1  0
 28 29  2  0
 29 30  1  0
 29 53  1  0
 30 31  2  0
 30 54  1  0
 32 33  2  0
 32 55  1  0
 33 56  1  0
 34 35  2  0
 34 57  1  0
 35 58  1  0
M  END

