
     RDKit          3D

 16 16  0  0  0  0  0  0  0  0999 V2000
    1.3188    0.4274   -0.8050 O   0  0  0  0  0  0  0  0  0  0  0  0
    2.1947    0.0338    0.0432 C   0  0  0  0  0  0  0  0  0  0  0  0
    2.8770    0.7618    1.0186 C   0  0  0  0  0  0  0  0  0  0  0  0
    2.6804    2.1734    1.2322 C   0  0  0  0  0  0  0  0  0  0  0  0
    3.3914    2.8425    2.2201 C   0  0  0  0  0  0  0  0  0  0  0  0
    3.2385    4.1757    2.4580 O   0  0  0  0  0  0  0  0  0  0  0  0
    4.3151    2.1518    3.0283 C   0  0  0  0  0  0  0  0  0  0  0  0
    4.5182    0.7716    2.8324 C   0  0  0  0  0  0  0  0  0  0  0  0
    3.8260    0.0755    1.8569 C   0  0  0  0  0  0  0  0  0  0  0  0
    3.9847   -1.2588    1.6260 O   0  0  0  0  0  0  0  0  0  0  0  0
    2.4106   -1.0543   -0.0500 H   0  0  0  0  0  0  0  0  0  0  0  0
    1.9655    2.7146    0.6089 H   0  0  0  0  0  0  0  0  0  0  0  0
    2.5870    4.5372    1.8436 H   0  0  0  0  0  0  0  0  0  0  0  0
    4.8612    2.6991    3.7969 H   0  0  0  0  0  0  0  0  0  0  0  0
    5.2367    0.2374    3.4623 H   0  0  0  0  0  0  0  0  0  0  0  0
    4.6384   -1.6199    2.2384 H   0  0  0  0  0  0  0  0  0  0  0  0
  1  2  2  0
  2  3  1  0
  2 11  1  0
  3  4  2  0
  3  9  1  0
  4  5  1  0
  4 12  1  0
  5  6  1  0
  5  7  2  0
  6 13  1  0
  7  8  1  0
  7 14  1  0
  8  9  2  0
  8 15  1  0
  9 10  1  0
 10 16  1  0
M  END

