
     RDKit          3D

 17 18  0  0  0  0  0  0  0  0999 V2000
    1.0160    0.1953    0.0383 N   0  0  0  0  0  0  0  0  0  0  0  0
    2.1738    0.0904    0.0407 C   0  0  0  0  0  0  0  0  0  0  0  0
    3.6039    0.0248    0.0483 C   0  0  0  0  0  0  0  0  0  0  0  0
    4.3025   -1.1916    0.0178 C   0  0  0  0  0  0  0  0  0  0  0  0
    5.7082   -1.2172    0.0263 C   0  0  0  0  0  0  0  0  0  0  0  0
    6.4548   -0.0406    0.0651 C   0  0  0  0  0  0  0  0  0  0  0  0
    5.7897    1.1985    0.0967 C   0  0  0  0  0  0  0  0  0  0  0  0
    6.2129    2.5731    0.1400 C   0  0  0  0  0  0  0  0  0  0  0  0
    5.0743    3.3407    0.1537 C   0  0  0  0  0  0  0  0  0  0  0  0
    3.9600    2.5229    0.1232 N   0  0  0  0  0  0  0  0  0  0  0  0
    2.9964    2.8340    0.1262 H   0  0  0  0  0  0  0  0  0  0  0  0
    4.3642    1.2142    0.0877 C   0  0  0  0  0  0  0  0  0  0  0  0
    3.7374   -2.1247   -0.0130 H   0  0  0  0  0  0  0  0  0  0  0  0
    6.2193   -2.1822    0.0017 H   0  0  0  0  0  0  0  0  0  0  0  0
    7.5470   -0.0800    0.0712 H   0  0  0  0  0  0  0  0  0  0  0  0
    7.2355    2.9434    0.1579 H   0  0  0  0  0  0  0  0  0  0  0  0
    4.9627    4.4229    0.1840 H   0  0  0  0  0  0  0  0  0  0  0  0
  1  2  3  0
  2  3  1  0
  3  4  2  0
  3 12  1  0
  4  5  1  0
  4 13  1  0
  5  6  2  0
  5 14  1  0
  6  7  1  0
  6 15  1  0
  7  8  1  0
  7 12  2  0
  8  9  2  0
  8 16  1  0
  9 10  1  0
  9 17  1  0
 10 11  1  0
 10 12  1  0
M  END

