
     RDKit          3D

 94103  0  0  0  0  0  0  0  0999 V2000
    2.3579   -8.9222    6.2585 N   0  0  0  0  0  0  0  0  0  0  0  0
    1.7285   -8.1078    5.7237 C   0  0  0  0  0  0  0  0  0  0  0  0
    0.9461   -7.0958    5.0571 C   0  0  0  0  0  0  0  0  0  0  0  0
    1.5940   -6.1755    4.3539 N   0  0  0  0  0  0  0  0  0  0  0  0
    0.8883   -5.2255    3.7254 C   0  0  0  0  0  0  0  0  0  0  0  0
    1.5846   -4.2064    2.9575 C   0  0  0  0  0  0  0  0  0  0  0  0
    2.9937   -4.2111    2.8789 C   0  0  0  0  0  0  0  0  0  0  0  0
    3.6690   -3.2415    2.1622 C   0  0  0  0  0  0  0  0  0  0  0  0
    2.9633   -2.2145    1.4881 C   0  0  0  0  0  0  0  0  0  0  0  0
    3.6855   -1.1659    0.7282 C   0  0  0  0  0  0  0  0  0  0  0  0
    3.1386   -0.5813   -0.4310 C   0  0  0  0  0  0  0  0  0  0  0  0
    3.8100    0.4119   -1.1377 C   0  0  0  0  0  0  0  0  0  0  0  0
    5.0773    0.8645   -0.7189 C   0  0  0  0  0  0  0  0  0  0  0  0
    5.7642    1.8702   -1.4314 N   0  0  0  0  0  0  0  0  0  0  0  0
    6.5668    2.8222   -0.7415 C   0  0  0  0  0  0  0  0  0  0  0  0
    7.8441    3.1578   -1.2241 C   0  0  0  0  0  0  0  0  0  0  0  0
    8.6247    4.1024   -0.5555 C   0  0  0  0  0  0  0  0  0  0  0  0
    8.1548    4.7157    0.6103 C   0  0  0  0  0  0  0  0  0  0  0  0
    6.8870    4.3804    1.0966 C   0  0  0  0  0  0  0  0  0  0  0  0
    6.0931    3.4494    0.4248 C   0  0  0  0  0  0  0  0  0  0  0  0
    5.6600    1.9497   -2.8487 C   0  0  0  0  0  0  0  0  0  0  0  0
    5.7705    0.7936   -3.6420 C   0  0  0  0  0  0  0  0  0  0  0  0
    5.6645    0.8793   -5.0313 C   0  0  0  0  0  0  0  0  0  0  0  0
    5.4660    2.1160   -5.6538 C   0  0  0  0  0  0  0  0  0  0  0  0
    5.3669    3.2692   -4.8689 C   0  0  0  0  0  0  0  0  0  0  0  0
    5.4548    3.1902   -3.4779 C   0  0  0  0  0  0  0  0  0  0  0  0
    5.6372    0.2800    0.4347 C   0  0  0  0  0  0  0  0  0  0  0  0
    4.9528   -0.7066    1.1379 C   0  0  0  0  0  0  0  0  0  0  0  0
    1.5654   -2.2188    1.5669 C   0  0  0  0  0  0  0  0  0  0  0  0
    0.8454   -3.1944    2.2847 C   0  0  0  0  0  0  0  0  0  0  0  0
   -0.6266   -3.1873    2.3614 C   0  0  0  0  0  0  0  0  0  0  0  0
   -1.4089   -2.2189    1.7016 C   0  0  0  0  0  0  0  0  0  0  0  0
   -2.8070   -2.1992    1.7714 C   0  0  0  0  0  0  0  0  0  0  0  0
   -3.5960   -1.1701    1.0521 C   0  0  0  0  0  0  0  0  0  0  0  0
   -3.1796   -0.6576   -0.1924 C   0  0  0  0  0  0  0  0  0  0  0  0
   -3.9177    0.3076   -0.8708 C   0  0  0  0  0  0  0  0  0  0  0  0
   -5.1227    0.8030   -0.3342 C   0  0  0  0  0  0  0  0  0  0  0  0
   -5.8800    1.7759   -1.0217 N   0  0  0  0  0  0  0  0  0  0  0  0
   -6.5714    2.7902   -0.3014 C   0  0  0  0  0  0  0  0  0  0  0  0
   -5.9386    3.4826    0.7466 C   0  0  0  0  0  0  0  0  0  0  0  0
   -6.6229    4.4756    1.4496 C   0  0  0  0  0  0  0  0  0  0  0  0
   -7.9386    4.8077    1.1108 C   0  0  0  0  0  0  0  0  0  0  0  0
   -8.5679    4.1283    0.0629 C   0  0  0  0  0  0  0  0  0  0  0  0
   -7.8965    3.1225   -0.6345 C   0  0  0  0  0  0  0  0  0  0  0  0
   -5.9662    1.7504   -2.4418 C   0  0  0  0  0  0  0  0  0  0  0  0
   -6.1903    0.5417   -3.1253 C   0  0  0  0  0  0  0  0  0  0  0  0
   -6.2737    0.5244   -4.5186 C   0  0  0  0  0  0  0  0  0  0  0  0
   -6.1540    1.7090   -5.2526 C   0  0  0  0  0  0  0  0  0  0  0  0
   -5.9414    2.9143   -4.5760 C   0  0  0  0  0  0  0  0  0  0  0  0
   -5.8397    2.9382   -3.1839 C   0  0  0  0  0  0  0  0  0  0  0  0
   -5.5495    0.2950    0.9089 C   0  0  0  0  0  0  0  0  0  0  0  0
   -4.7998   -0.6655    1.5816 C   0  0  0  0  0  0  0  0  0  0  0  0
   -3.4475   -3.1966    2.5472 C   0  0  0  0  0  0  0  0  0  0  0  0
   -2.7099   -4.1625    3.2052 C   0  0  0  0  0  0  0  0  0  0  0  0
   -1.3010   -4.1804    3.1247 C   0  0  0  0  0  0  0  0  0  0  0  0
   -0.5388   -5.2094    3.8128 C   0  0  0  0  0  0  0  0  0  0  0  0
   -1.1835   -6.1420    4.5271 N   0  0  0  0  0  0  0  0  0  0  0  0
   -0.4755   -7.0779    5.1468 C   0  0  0  0  0  0  0  0  0  0  0  0
   -1.1930   -8.0696    5.9098 C   0  0  0  0  0  0  0  0  0  0  0  0
   -1.7691   -8.8675    6.5238 N   0  0  0  0  0  0  0  0  0  0  0  0
    3.5354   -5.0056    3.3933 H   0  0  0  0  0  0  0  0  0  0  0  0
    4.7578   -3.2835    2.0974 H   0  0  0  0  0  0  0  0  0  0  0  0
    2.1687   -0.9198   -0.8026 H   0  0  0  0  0  0  0  0  0  0  0  0
    3.3522    0.8415   -2.0300 H   0  0  0  0  0  0  0  0  0  0  0  0
    8.2204    2.6735   -2.1272 H   0  0  0  0  0  0  0  0  0  0  0  0
    9.6156    4.3513   -0.9442 H   0  0  0  0  0  0  0  0  0  0  0  0
    8.7710    5.4497    1.1348 H   0  0  0  0  0  0  0  0  0  0  0  0
    6.5035    4.8585    2.0018 H   0  0  0  0  0  0  0  0  0  0  0  0
    5.0984    3.2029    0.8012 H   0  0  0  0  0  0  0  0  0  0  0  0
    5.9411   -0.1724   -3.1628 H   0  0  0  0  0  0  0  0  0  0  0  0
    5.7531   -0.0290   -5.6330 H   0  0  0  0  0  0  0  0  0  0  0  0
    5.3910    2.1805   -6.7418 H   0  0  0  0  0  0  0  0  0  0  0  0
    5.2073    4.2417   -5.3419 H   0  0  0  0  0  0  0  0  0  0  0  0
    5.3653    4.0918   -2.8689 H   0  0  0  0  0  0  0  0  0  0  0  0
    6.6177    0.6076    0.7835 H   0  0  0  0  0  0  0  0  0  0  0  0
    5.4135   -1.1182    2.0387 H   0  0  0  0  0  0  0  0  0  0  0  0
    1.0238   -1.4132    1.0741 H   0  0  0  0  0  0  0  0  0  0  0  0
   -0.9160   -1.4348    1.1292 H   0  0  0  0  0  0  0  0  0  0  0  0
   -2.2638   -1.0341   -0.6539 H   0  0  0  0  0  0  0  0  0  0  0  0
   -3.5637    0.6803   -1.8333 H   0  0  0  0  0  0  0  0  0  0  0  0
   -4.9065    3.2384    1.0059 H   0  0  0  0  0  0  0  0  0  0  0  0
   -6.1163    5.0043    2.2613 H   0  0  0  0  0  0  0  0  0  0  0  0
   -8.4688    5.5902    1.6588 H   0  0  0  0  0  0  0  0  0  0  0  0
   -9.5978    4.3738   -0.2090 H   0  0  0  0  0  0  0  0  0  0  0  0
   -8.3962    2.5872   -1.4441 H   0  0  0  0  0  0  0  0  0  0  0  0
   -6.3012   -0.3840   -2.5573 H   0  0  0  0  0  0  0  0  0  0  0  0
   -6.4489   -0.4239   -5.0335 H   0  0  0  0  0  0  0  0  0  0  0  0
   -6.2270    1.6929   -6.3425 H   0  0  0  0  0  0  0  0  0  0  0  0
   -5.8408    3.8470   -5.1371 H   0  0  0  0  0  0  0  0  0  0  0  0
   -5.6622    3.8803   -2.6617 H   0  0  0  0  0  0  0  0  0  0  0  0
   -6.4779    0.6605    1.3503 H   0  0  0  0  0  0  0  0  0  0  0  0
   -5.1565   -1.0213    2.5508 H   0  0  0  0  0  0  0  0  0  0  0  0
   -4.5374   -3.2223    2.6032 H   0  0  0  0  0  0  0  0  0  0  0  0
   -3.2019   -4.9395    3.7915 H   0  0  0  0  0  0  0  0  0  0  0  0
  1  2  3  0
  2  3  1  0
  3  4  2  0
  3 58  1  0
  4  5  1  0
  5  6  2  0
  5 56  1  0
  6  7  1  0
  6 30  1  0
  7  8  2  0
  7 61  1  0
  8  9  1  0
  8 62  1  0
  9 10  1  0
  9 29  2  0
 10 11  2  0
 10 28  1  0
 11 12  1  0
 11 63  1  0
 12 13  2  0
 12 64  1  0
 13 14  1  0
 13 27  1  0
 14 15  1  0
 14 21  1  0
 15 16  2  0
 15 20  1  0
 16 17  1  0
 16 65  1  0
 17 18  2  0
 17 66  1  0
 18 19  1  0
 18 67  1  0
 19 20  2  0
 19 68  1  0
 20 69  1  0
 21 22  2  0
 21 26  1  0
 22 23  1  0
 22 70  1  0
 23 24  2  0
 23 71  1  0
 24 25  1  0
 24 72  1  0
 25 26  2  0
 25 73  1  0
 26 74  1  0
 27 28  2  0
 27 75  1  0
 28 76  1  0
 29 30  1  0
 29 77  1  0
 30 31  2  0
 31 32  1  0
 31 55  1  0
 32 33  2  0
 32 78  1  0
 33 34  1  0
 33 53  1  0
 34 35  2  0
 34 52  1  0
 35 36  1  0
 35 79  1  0
 36 37  2  0
 36 80  1  0
 37 38  1  0
 37 51  1  0
 38 39  1  0
 38 45  1  0
 39 40  2  0
 39 44  1  0
 40 41  1  0
 40 81  1  0
 41 42  2  0
 41 82  1  0
 42 43  1  0
 42 83  1  0
 43 44  2  0
 43 84  1  0
 44 85  1  0
 45 46  2  0
 45 50  1  0
 46 47  1  0
 46 86  1  0
 47 48  2  0
 47 87  1  0
 48 49  1  0
 48 88  1  0
 49 50  2  0
 49 89  1  0
 50 90  1  0
 51 52  2  0
 51 91  1  0
 52 92  1  0
 53 54  2  0
 53 93  1  0
 54 55  1  0
 54 94  1  0
 55 56  2  0
 56 57  1  0
 57 58  2  0
 58 59  1  0
 59 60  3  0
M  END

