
     RDKit          3D

 67 71  0  0  0  0  0  0  0  0999 V2000
    1.0909   -0.1223   -0.3408 C   0  0  0  0  0  0  0  0  0  0  0  0
    2.4934    0.1354   -0.2823 O   0  0  0  0  0  0  0  0  0  0  0  0
    3.0215    0.2763    0.9485 C   0  0  0  0  0  0  0  0  0  0  0  0
    2.3668    0.1950    1.9622 O   0  0  0  0  0  0  0  0  0  0  0  0
    4.4901    0.5434    0.9133 C   0  0  0  0  0  0  0  0  0  0  0  0
    5.2144    0.6245   -0.2860 C   0  0  0  0  0  0  0  0  0  0  0  0
    6.5856    0.8789   -0.2636 C   0  0  0  0  0  0  0  0  0  0  0  0
    7.2344    1.0495    0.9626 C   0  0  0  0  0  0  0  0  0  0  0  0
    8.6025    1.2208    0.9455 O   0  0  0  0  0  0  0  0  0  0  0  0
    9.2126    2.2925    1.5258 C   0  0  0  0  0  0  0  0  0  0  0  0
    8.5590    3.4786    1.8297 C   0  0  0  0  0  0  0  0  0  0  0  0
    9.2759    4.5541    2.3884 C   0  0  0  0  0  0  0  0  0  0  0  0
   10.6347    4.4546    2.6470 C   0  0  0  0  0  0  0  0  0  0  0  0
   11.3201    3.2507    2.3356 C   0  0  0  0  0  0  0  0  0  0  0  0
   12.7139    3.1367    2.5795 C   0  0  0  0  0  0  0  0  0  0  0  0
   13.3846    1.9637    2.2661 C   0  0  0  0  0  0  0  0  0  0  0  0
   12.6883    0.8713    1.7077 C   0  0  0  0  0  0  0  0  0  0  0  0
   11.3293    0.9569    1.4609 C   0  0  0  0  0  0  0  0  0  0  0  0
   10.6163    2.1453    1.7662 C   0  0  0  0  0  0  0  0  0  0  0  0
   13.4712    4.2755    3.1678 C   0  0  0  0  0  0  0  0  0  0  0  0
   14.6718    4.2322    3.3539 O   0  0  0  0  0  0  0  0  0  0  0  0
   12.7263    5.4215    3.5120 N   0  0  0  0  0  0  0  0  0  0  0  0
   13.4615    6.5432    4.0700 C   0  0  0  0  0  0  0  0  0  0  0  0
   14.0679    7.4458    3.1697 C   0  0  0  0  0  0  0  0  0  0  0  0
   13.9612    7.2944    1.6549 C   0  0  1  0  0  0  0  0  0  0  0  0
   13.2292    8.4900    1.0194 C   0  0  0  0  0  0  0  0  0  0  0  0
   15.3397    7.0552    1.0136 C   0  0  0  0  0  0  0  0  0  0  0  0
   14.7940    8.5223    3.6971 C   0  0  0  0  0  0  0  0  0  0  0  0
   14.9179    8.6974    5.0723 C   0  0  0  0  0  0  0  0  0  0  0  0
   14.3099    7.7938    5.9402 C   0  0  0  0  0  0  0  0  0  0  0  0
   13.5668    6.6985    5.4703 C   0  0  0  0  0  0  0  0  0  0  0  0
   12.9007    5.8228    6.5385 C   0  0  1  0  0  0  0  0  0  0  0  0
   11.4521    6.2742    6.8120 C   0  0  0  0  0  0  0  0  0  0  0  0
   12.9913    4.2988    6.3537 C   0  0  0  0  0  0  0  0  0  0  0  0
   11.3577    5.6104    3.2313 C   0  0  0  0  0  0  0  0  0  0  0  0
   10.8141    6.6731    3.4692 O   0  0  0  0  0  0  0  0  0  0  0  0
    6.5278    0.9618    2.1692 C   0  0  0  0  0  0  0  0  0  0  0  0
    5.1584    0.7121    2.1370 C   0  0  0  0  0  0  0  0  0  0  0  0
    0.8388   -0.2039   -1.4052 H   0  0  0  0  0  0  0  0  0  0  0  0
    0.5230    0.6971    0.1252 H   0  0  0  0  0  0  0  0  0  0  0  0
    0.8431   -1.0577    0.1836 H   0  0  0  0  0  0  0  0  0  0  0  0
    4.6964    0.4897   -1.2360 H   0  0  0  0  0  0  0  0  0  0  0  0
    7.1674    0.9444   -1.1848 H   0  0  0  0  0  0  0  0  0  0  0  0
    7.4925    3.5827    1.6283 H   0  0  0  0  0  0  0  0  0  0  0  0
    8.7705    5.4927    2.6245 H   0  0  0  0  0  0  0  0  0  0  0  0
   14.4570    1.9117    2.4637 H   0  0  0  0  0  0  0  0  0  0  0  0
   13.2282   -0.0477    1.4688 H   0  0  0  0  0  0  0  0  0  0  0  0
   10.7871    0.1154    1.0275 H   0  0  0  0  0  0  0  0  0  0  0  0
   13.3529    6.4039    1.4423 H   0  0  0  0  0  0  0  0  0  0  0  0
   13.7914    9.4286    1.1536 H   0  0  0  0  0  0  0  0  0  0  0  0
   12.2333    8.6251    1.4686 H   0  0  0  0  0  0  0  0  0  0  0  0
   13.1012    8.3328   -0.0643 H   0  0  0  0  0  0  0  0  0  0  0  0
   16.0051    7.9237    1.1483 H   0  0  0  0  0  0  0  0  0  0  0  0
   15.2375    6.8810   -0.0703 H   0  0  0  0  0  0  0  0  0  0  0  0
   15.8320    6.1781    1.4604 H   0  0  0  0  0  0  0  0  0  0  0  0
   15.2719    9.2321    3.0177 H   0  0  0  0  0  0  0  0  0  0  0  0
   15.4917    9.5383    5.4705 H   0  0  0  0  0  0  0  0  0  0  0  0
   14.4094    7.9343    7.0200 H   0  0  0  0  0  0  0  0  0  0  0  0
   13.4698    6.0421    7.4577 H   0  0  0  0  0  0  0  0  0  0  0  0
   10.8096    6.1428    5.9297 H   0  0  0  0  0  0  0  0  0  0  0  0
   11.4155    7.3407    7.0828 H   0  0  0  0  0  0  0  0  0  0  0  0
   11.0216    5.6952    7.6461 H   0  0  0  0  0  0  0  0  0  0  0  0
   12.2660    3.9193    5.6193 H   0  0  0  0  0  0  0  0  0  0  0  0
   12.7633    3.8019    7.3107 H   0  0  0  0  0  0  0  0  0  0  0  0
   13.9968    3.9843    6.0380 H   0  0  0  0  0  0  0  0  0  0  0  0
    7.0533    1.0822    3.1185 H   0  0  0  0  0  0  0  0  0  0  0  0
    4.5818    0.6349    3.0607 H   0  0  0  0  0  0  0  0  0  0  0  0
  1  2  1  0
  1 39  1  0
  1 40  1  0
  1 41  1  0
  2  3  1  0
  3  4  2  0
  3  5  1  0
  5  6  2  0
  5 38  1  0
  6  7  1  0
  6 42  1  0
  7  8  2  0
  7 43  1  0
  8  9  1  0
  8 37  1  0
  9 10  1  0
 10 11  2  0
 10 19  1  0
 11 12  1  0
 11 44  1  0
 12 13  2  0
 12 45  1  0
 13 14  1  0
 13 35  1  0
 14 15  1  0
 14 19  2  0
 15 16  2  0
 15 20  1  0
 16 17  1  0
 16 46  1  0
 17 18  2  0
 17 47  1  0
 18 19  1  0
 18 48  1  0
 20 21  2  0
 20 22  1  0
 22 23  1  0
 22 35  1  0
 23 24  2  0
 23 31  1  0
 24 25  1  0
 24 28  1  0
 25 26  1  0
 25 27  1  0
 25 49  1  1
 26 50  1  0
 26 51  1  0
 26 52  1  0
 27 53  1  0
 27 54  1  0
 27 55  1  0
 28 29  2  0
 28 56  1  0
 29 30  1  0
 29 57  1  0
 30 31  2  0
 30 58  1  0
 31 32  1  0
 32 33  1  0
 32 34  1  0
 32 59  1  1
 33 60  1  0
 33 61  1  0
 33 62  1  0
 34 63  1  0
 34 64  1  0
 34 65  1  0
 35 36  2  0
 37 38  2  0
 37 66  1  0
 38 67  1  0
M  END

