
     RDKit          3D

 49 54  0  0  0  0  0  0  0  0999 V2000
    1.0383   -0.1161    0.8132 Cl  0  0  0  0  0  0  0  0  0  0  0  0
    2.6990   -0.0963    0.2716 C   0  0  0  0  0  0  0  0  0  0  0  0
    3.3577    1.1221    0.0897 C   0  0  0  0  0  0  0  0  0  0  0  0
    4.6837    1.1227   -0.3412 C   0  0  0  0  0  0  0  0  0  0  0  0
    5.3823   -0.0747   -0.5998 C   0  0  0  0  0  0  0  0  0  0  0  0
    6.7756   -0.0015   -1.0468 C   0  0  0  0  0  0  0  0  0  0  0  0
    7.5977   -1.0371   -1.3320 C   0  0  0  0  0  0  0  0  0  0  0  0
    8.9905   -0.9609   -1.7752 C   0  0  0  0  0  0  0  0  0  0  0  0
    9.6795    0.2538   -1.9973 C   0  0  0  0  0  0  0  0  0  0  0  0
   11.0023    0.2689   -2.4134 C   0  0  0  0  0  0  0  0  0  0  0  0
   11.7096   -0.9328   -2.6302 C   0  0  0  0  0  0  0  0  0  0  0  0
   13.1053   -0.8658   -3.0644 C   0  0  0  0  0  0  0  0  0  0  0  0
   13.7717    0.2497   -3.3135 N   0  0  0  0  0  0  0  0  0  0  0  0
   15.0290   -0.1392   -3.6838 C   0  0  0  0  0  0  0  0  0  0  0  0
   16.1490    0.6810   -4.0609 C   0  0  0  0  0  0  0  0  0  0  0  0
   16.0940    2.0886   -4.1037 C   0  0  0  0  0  0  0  0  0  0  0  0
   17.2261    2.7895   -4.4800 C   0  0  0  0  0  0  0  0  0  0  0  0
   18.3896    2.0602   -4.8052 C   0  0  0  0  0  0  0  0  0  0  0  0
   18.4633    0.7413   -4.7719 N   0  0  0  0  0  0  0  0  0  0  0  0
   17.3741    0.0374   -4.4086 C   0  0  0  0  0  0  0  0  0  0  0  0
   17.4748   -1.4346   -4.3773 C   0  0  0  0  0  0  0  0  0  0  0  0
   18.6484   -2.0005   -4.7106 N   0  0  0  0  0  0  0  0  0  0  0  0
   18.7635   -3.3168   -4.6903 C   0  0  0  0  0  0  0  0  0  0  0  0
   17.7127   -4.1869   -4.3344 C   0  0  0  0  0  0  0  0  0  0  0  0
   16.4932   -3.6332   -3.9868 C   0  0  0  0  0  0  0  0  0  0  0  0
   16.3429   -2.2297   -3.9996 C   0  0  0  0  0  0  0  0  0  0  0  0
   15.1415   -1.5305   -3.6622 C   0  0  0  0  0  0  0  0  0  0  0  0
   13.9012   -1.9769   -3.2644 N   0  0  0  0  0  0  0  0  0  0  0  0
   13.6233   -2.9399   -3.1336 H   0  0  0  0  0  0  0  0  0  0  0  0
   11.0320   -2.1463   -2.4162 C   0  0  0  0  0  0  0  0  0  0  0  0
    9.7039   -2.1564   -1.9988 C   0  0  0  0  0  0  0  0  0  0  0  0
    4.6855   -1.2875   -0.4077 C   0  0  0  0  0  0  0  0  0  0  0  0
    3.3622   -1.3045    0.0223 C   0  0  0  0  0  0  0  0  0  0  0  0
    2.8328    2.0585    0.2854 H   0  0  0  0  0  0  0  0  0  0  0  0
    5.1951    2.0790   -0.4813 H   0  0  0  0  0  0  0  0  0  0  0  0
    7.1625    1.0177   -1.1474 H   0  0  0  0  0  0  0  0  0  0  0  0
    7.2133   -2.0570   -1.2276 H   0  0  0  0  0  0  0  0  0  0  0  0
    9.1686    1.2061   -1.8416 H   0  0  0  0  0  0  0  0  0  0  0  0
   11.5249    1.2117   -2.5817 H   0  0  0  0  0  0  0  0  0  0  0  0
   15.1607    2.5901   -3.8395 H   0  0  0  0  0  0  0  0  0  0  0  0
   17.2297    3.8810   -4.5274 H   0  0  0  0  0  0  0  0  0  0  0  0
   19.2997    2.5943   -5.1066 H   0  0  0  0  0  0  0  0  0  0  0  0
   19.7411   -3.7292   -4.9700 H   0  0  0  0  0  0  0  0  0  0  0  0
   17.8652   -5.2685   -4.3354 H   0  0  0  0  0  0  0  0  0  0  0  0
   15.6555   -4.2775   -3.7049 H   0  0  0  0  0  0  0  0  0  0  0  0
   11.5327   -3.1050   -2.5764 H   0  0  0  0  0  0  0  0  0  0  0  0
    9.2006   -3.1140   -1.8399 H   0  0  0  0  0  0  0  0  0  0  0  0
    5.1832   -2.2407   -0.5967 H   0  0  0  0  0  0  0  0  0  0  0  0
    2.8358   -2.2495    0.1669 H   0  0  0  0  0  0  0  0  0  0  0  0
  1  2  1  0
  2  3  2  0
  2 33  1  0
  3  4  1  0
  3 34  1  0
  4  5  2  0
  4 35  1  0
  5  6  1  0
  5 32  1  0
  6  7  2  0
  6 36  1  0
  7  8  1  0
  7 37  1  0
  8  9  2  0
  8 31  1  0
  9 10  1  0
  9 38  1  0
 10 11  2  0
 10 39  1  0
 11 12  1  0
 11 30  1  0
 12 13  2  0
 12 28  1  0
 13 14  1  0
 14 15  2  0
 14 27  1  0
 15 16  1  0
 15 20  1  0
 16 17  2  0
 16 40  1  0
 17 18  1  0
 17 41  1  0
 18 19  2  0
 18 42  1  0
 19 20  1  0
 20 21  2  0
 21 22  1  0
 21 26  1  0
 22 23  2  0
 23 24  1  0
 23 43  1  0
 24 25  2  0
 24 44  1  0
 25 26  1  0
 25 45  1  0
 26 27  2  0
 27 28  1  0
 28 29  1  0
 30 31  2  0
 30 46  1  0
 31 47  1  0
 32 33  2  0
 32 48  1  0
 33 49  1  0
M  END

