
     RDKit          3D

105109  0  0  0  0  0  0  0  0999 V2000
   22.4576    0.2848   31.7654 C   0  0  0  0  0  0  0  0  0  0  0  0
   23.3004    1.5288   31.4786 C   0  0  0  0  0  0  0  0  0  0  0  0
   22.7262    2.4030   30.3577 C   0  0  0  0  0  0  0  0  0  0  0  0
   23.4952    3.7046   30.0842 C   0  0  0  0  0  0  0  0  0  0  0  0
   24.9462    3.5963   29.5819 C   0  0  0  0  0  0  0  0  0  0  0  0
   25.1420    2.9506   28.1957 C   0  0  0  0  0  0  0  0  0  0  0  0
   25.3469    1.4301   28.2024 C   0  0  0  0  0  0  0  0  0  0  0  0
   25.5371    0.8266   26.8022 C   0  0  0  0  0  0  0  0  0  0  0  0
   24.3266    0.9383   25.8973 C   0  0  0  0  0  0  0  0  0  0  0  0
   24.3219    1.3937   24.7849 O   0  0  0  0  0  0  0  0  0  0  0  0
   23.2206    0.4258   26.5140 O   0  0  0  0  0  0  0  0  0  0  0  0
   21.9472    0.4700   25.9274 C   0  0  0  0  0  0  0  0  0  0  0  0
   21.4440    1.7263   25.6372 C   0  0  0  0  0  0  0  0  0  0  0  0
   20.1279    2.0832   25.2002 C   0  0  0  0  0  0  0  0  0  0  0  0
   19.9288    2.8739   24.0809 N   0  0  0  0  0  0  0  0  0  0  0  0
   20.6583    3.0080   23.3905 H   0  0  0  0  0  0  0  0  0  0  0  0
   18.5782    2.9418   23.7839 C   0  0  0  0  0  0  0  0  0  0  0  0
   17.9044    2.3538   24.8805 C   0  0  0  0  0  0  0  0  0  0  0  0
   18.8407    1.7918   25.7391 C   0  0  0  0  0  0  0  0  0  0  0  0
   18.5612    1.0107   26.9909 C   0  0  0  0  0  0  0  0  0  0  0  0
   17.1129    0.5655   27.1355 C   0  0  0  0  0  0  0  0  0  0  0  0
   16.7547   -0.2756   26.0560 O   0  0  0  0  0  0  0  0  0  0  0  0
   15.4562   -0.8031   26.1527 C   0  0  0  0  0  0  0  0  0  0  0  0
   18.0406    2.9795   22.4552 C   0  0  0  0  0  0  0  0  0  0  0  0
   16.9478    2.2234   22.2661 N   0  0  0  0  0  0  0  0  0  0  0  0
   17.0176    1.7729   20.9936 C   0  0  0  0  0  0  0  0  0  0  0  0
   16.7690    0.3870   20.7494 C   0  0  0  0  0  0  0  0  0  0  0  0
   16.7027   -0.4037   21.9044 C   0  0  0  0  0  0  0  0  0  0  0  0
   17.4099   -1.5669   22.2555 C   0  0  0  0  0  0  0  0  0  0  0  0
   17.9685   -1.5572   23.5263 N   0  0  0  0  0  0  0  0  0  0  0  0
   17.8537   -0.8057   24.2103 H   0  0  0  0  0  0  0  0  0  0  0  0
   19.0128   -2.4230   23.6033 C   0  0  0  0  0  0  0  0  0  0  0  0
   18.9735   -3.2129   22.4081 C   0  0  0  0  0  0  0  0  0  0  0  0
   18.0196   -2.6677   21.5557 C   0  0  0  0  0  0  0  0  0  0  0  0
   17.7217   -3.0656   20.1389 C   0  0  0  0  0  0  0  0  0  0  0  0
   18.7873   -2.5760   19.1546 C   0  0  0  0  0  0  0  0  0  0  0  0
   18.3585   -2.8762   17.8480 O   0  0  0  0  0  0  0  0  0  0  0  0
   19.2355   -2.4224   16.8519 C   0  0  0  0  0  0  0  0  0  0  0  0
   20.0840   -2.1608   24.5076 C   0  0  0  0  0  0  0  0  0  0  0  0
   20.1820   -0.9137   25.0275 N   0  0  0  0  0  0  0  0  0  0  0  0
   21.4073   -0.8164   25.5785 C   0  0  0  0  0  0  0  0  0  0  0  0
   22.1212   -2.1020   25.4855 C   0  0  0  0  0  0  0  0  0  0  0  0
   23.4964   -2.4436   25.9944 C   0  0  0  0  0  0  0  0  0  0  0  0
   23.9369   -3.8848   25.7768 C   0  0  0  0  0  0  0  0  0  0  0  0
   23.1350   -4.7609   26.5316 O   0  0  0  0  0  0  0  0  0  0  0  0
   23.4968   -6.1076   26.4052 C   0  0  0  0  0  0  0  0  0  0  0  0
   21.2676   -2.9325   24.7917 C   0  0  0  0  0  0  0  0  0  0  0  0
   18.0425    2.5221   20.2341 C   0  0  0  0  0  0  0  0  0  0  0  0
   18.3051    2.4309   18.7568 C   0  0  0  0  0  0  0  0  0  0  0  0
   19.7568    2.1598   18.3718 C   0  0  0  0  0  0  0  0  0  0  0  0
   20.1151    0.8580   18.7726 O   0  0  0  0  0  0  0  0  0  0  0  0
   21.4897    0.5882   18.6710 C   0  0  0  0  0  0  0  0  0  0  0  0
   18.7085    3.2571   21.1862 C   0  0  0  0  0  0  0  0  0  0  0  0
   22.8909   -0.3211   32.5773 H   0  0  0  0  0  0  0  0  0  0  0  0
   22.3791   -0.3603   30.8742 H   0  0  0  0  0  0  0  0  0  0  0  0
   21.4310    0.5561   32.0641 H   0  0  0  0  0  0  0  0  0  0  0  0
   24.3292    1.2180   31.2251 H   0  0  0  0  0  0  0  0  0  0  0  0
   23.3904    2.1354   32.3987 H   0  0  0  0  0  0  0  0  0  0  0  0
   21.6877    2.6726   30.6236 H   0  0  0  0  0  0  0  0  0  0  0  0
   22.6401    1.8073   29.4312 H   0  0  0  0  0  0  0  0  0  0  0  0
   23.5002    4.3064   31.0116 H   0  0  0  0  0  0  0  0  0  0  0  0
   22.9223    4.2988   29.3494 H   0  0  0  0  0  0  0  0  0  0  0  0
   25.5712    3.0676   30.3242 H   0  0  0  0  0  0  0  0  0  0  0  0
   25.3488    4.6228   29.5444 H   0  0  0  0  0  0  0  0  0  0  0  0
   26.0212    3.4076   27.7079 H   0  0  0  0  0  0  0  0  0  0  0  0
   24.2812    3.2103   27.5517 H   0  0  0  0  0  0  0  0  0  0  0  0
   24.5013    0.9250   28.6917 H   0  0  0  0  0  0  0  0  0  0  0  0
   26.2409    1.1909   28.8040 H   0  0  0  0  0  0  0  0  0  0  0  0
   25.7726   -0.2473   26.8977 H   0  0  0  0  0  0  0  0  0  0  0  0
   26.3730    1.3027   26.2685 H   0  0  0  0  0  0  0  0  0  0  0  0
   22.1878    2.5297   25.6184 H   0  0  0  0  0  0  0  0  0  0  0  0
   16.8238    2.2714   24.9385 H   0  0  0  0  0  0  0  0  0  0  0  0
   18.8253    1.6059   27.8837 H   0  0  0  0  0  0  0  0  0  0  0  0
   19.1997    0.1159   26.9994 H   0  0  0  0  0  0  0  0  0  0  0  0
   16.4286    1.4389   27.1768 H   0  0  0  0  0  0  0  0  0  0  0  0
   16.9925    0.0200   28.0935 H   0  0  0  0  0  0  0  0  0  0  0  0
   15.2883   -1.4452   25.2760 H   0  0  0  0  0  0  0  0  0  0  0  0
   14.6851   -0.0069   26.1621 H   0  0  0  0  0  0  0  0  0  0  0  0
   15.3290   -1.4148   27.0681 H   0  0  0  0  0  0  0  0  0  0  0  0
   17.0244   -0.0276   19.7712 H   0  0  0  0  0  0  0  0  0  0  0  0
   16.4605    0.1986   22.7838 H   0  0  0  0  0  0  0  0  0  0  0  0
   19.6532   -4.0330   22.1807 H   0  0  0  0  0  0  0  0  0  0  0  0
   16.7506   -2.6533   19.8237 H   0  0  0  0  0  0  0  0  0  0  0  0
   17.6415   -4.1615   20.0511 H   0  0  0  0  0  0  0  0  0  0  0  0
   19.7585   -3.0700   19.3742 H   0  0  0  0  0  0  0  0  0  0  0  0
   18.9527   -1.4865   19.2716 H   0  0  0  0  0  0  0  0  0  0  0  0
   18.7902   -2.6614   15.8746 H   0  0  0  0  0  0  0  0  0  0  0  0
   20.2278   -2.9168   16.9136 H   0  0  0  0  0  0  0  0  0  0  0  0
   19.3988   -1.3282   16.9151 H   0  0  0  0  0  0  0  0  0  0  0  0
   23.5717   -2.2103   27.0701 H   0  0  0  0  0  0  0  0  0  0  0  0
   24.2449   -1.8032   25.4958 H   0  0  0  0  0  0  0  0  0  0  0  0
   25.0017   -3.9874   26.0776 H   0  0  0  0  0  0  0  0  0  0  0  0
   23.8867   -4.1445   24.6976 H   0  0  0  0  0  0  0  0  0  0  0  0
   24.5392   -6.2931   26.7389 H   0  0  0  0  0  0  0  0  0  0  0  0
   23.4108   -6.4677   25.3587 H   0  0  0  0  0  0  0  0  0  0  0  0
   22.8180   -6.7017   27.0348 H   0  0  0  0  0  0  0  0  0  0  0  0
   21.4386   -3.9748   24.5316 H   0  0  0  0  0  0  0  0  0  0  0  0
   18.0018    3.3791   18.2768 H   0  0  0  0  0  0  0  0  0  0  0  0
   17.6708    1.6510   18.3060 H   0  0  0  0  0  0  0  0  0  0  0  0
   20.4233    2.9067   18.8503 H   0  0  0  0  0  0  0  0  0  0  0  0
   19.8838    2.2753   17.2745 H   0  0  0  0  0  0  0  0  0  0  0  0
   21.6543   -0.4472   19.0020 H   0  0  0  0  0  0  0  0  0  0  0  0
   22.0887    1.2630   19.3145 H   0  0  0  0  0  0  0  0  0  0  0  0
   21.8590    0.6903   17.6303 H   0  0  0  0  0  0  0  0  0  0  0  0
   19.5775    3.8995   21.0368 H   0  0  0  0  0  0  0  0  0  0  0  0
  1  2  1  0
  1 54  1  0
  1 55  1  0
  1 56  1  0
  2  3  1  0
  2 57  1  0
  2 58  1  0
  3  4  1  0
  3 59  1  0
  3 60  1  0
  4  5  1  0
  4 61  1  0
  4 62  1  0
  5  6  1  0
  5 63  1  0
  5 64  1  0
  6  7  1  0
  6 65  1  0
  6 66  1  0
  7  8  1  0
  7 67  1  0
  7 68  1  0
  8  9  1  0
  8 69  1  0
  8 70  1  0
  9 10  2  0
  9 11  1  0
 11 12  1  0
 12 13  2  0
 12 41  1  0
 13 14  1  0
 13 71  1  0
 14 15  1  0
 14 19  2  0
 15 16  1  0
 15 17  1  0
 17 18  2  0
 17 24  1  0
 18 19  1  0
 18 72  1  0
 19 20  1  0
 20 21  1  0
 20 73  1  0
 20 74  1  0
 21 22  1  0
 21 75  1  0
 21 76  1  0
 22 23  1  0
 23 77  1  0
 23 78  1  0
 23 79  1  0
 24 25  2  0
 24 53  1  0
 25 26  1  0
 26 27  2  0
 26 48  1  0
 27 28  1  0
 27 80  1  0
 28 29  2  0
 28 81  1  0
 29 30  1  0
 29 34  1  0
 30 31  1  0
 30 32  1  0
 32 33  1  0
 32 39  2  0
 33 34  2  0
 33 82  1  0
 34 35  1  0
 35 36  1  0
 35 83  1  0
 35 84  1  0
 36 37  1  0
 36 85  1  0
 36 86  1  0
 37 38  1  0
 38 87  1  0
 38 88  1  0
 38 89  1  0
 39 40  1  0
 39 47  1  0
 40 41  2  0
 41 42  1  0
 42 43  1  0
 42 47  2  0
 43 44  1  0
 43 90  1  0
 43 91  1  0
 44 45  1  0
 44 92  1  0
 44 93  1  0
 45 46  1  0
 46 94  1  0
 46 95  1  0
 46 96  1  0
 47 97  1  0
 48 49  1  0
 48 53  2  0
 49 50  1  0
 49 98  1  0
 49 99  1  0
 50 51  1  0
 50100  1  0
 50101  1  0
 51 52  1  0
 52102  1  0
 52103  1  0
 52104  1  0
 53105  1  0
M  END

