
     RDKit          3D

 81 88  0  0  0  0  0  0  0  0999 V2000
    2.0024   -0.6950    1.5577 O   0  0  0  0  0  0  0  0  0  0  0  0
    2.8236    0.5656    1.5798 P   0  0  1  0  0  0  0  0  0  0  0  0
    1.9923    1.9596    0.7343 C   0  0  0  0  0  0  0  0  0  0  0  0
    2.2543    3.3146    0.9938 C   0  0  0  0  0  0  0  0  0  0  0  0
    1.5623    4.3078    0.2945 C   0  0  0  0  0  0  0  0  0  0  0  0
    0.6019    3.9543   -0.6587 C   0  0  0  0  0  0  0  0  0  0  0  0
    0.3265    2.6060   -0.9081 C   0  0  0  0  0  0  0  0  0  0  0  0
    1.0154    1.6094   -0.2127 C   0  0  0  0  0  0  0  0  0  0  0  0
    3.2564    1.1021    3.2739 C   0  0  0  0  0  0  0  0  0  0  0  0
    4.3306    1.9501    3.5895 C   0  0  0  0  0  0  0  0  0  0  0  0
    4.5786    2.2998    4.9196 C   0  0  0  0  0  0  0  0  0  0  0  0
    3.7619    1.8000    5.9391 C   0  0  0  0  0  0  0  0  0  0  0  0
    2.7007    0.9433    5.6300 C   0  0  0  0  0  0  0  0  0  0  0  0
    2.4488    0.5898    4.3021 C   0  0  0  0  0  0  0  0  0  0  0  0
    4.4367    0.3208    0.7108 C   0  0  0  0  0  0  0  0  0  0  0  0
    5.1490    1.3420    0.0588 C   0  0  0  0  0  0  0  0  0  0  0  0
    6.3537    1.0597   -0.5707 C   0  0  0  0  0  0  0  0  0  0  0  0
    6.8786   -0.2615   -0.5723 C   0  0  0  0  0  0  0  0  0  0  0  0
    8.1430   -0.4571   -1.2551 C   0  0  0  0  0  0  0  0  0  0  0  0
    8.7688    0.6166   -1.8442 N   0  0  0  0  0  0  0  0  0  0  0  0
    9.8827    0.1336   -2.3807 C   0  0  0  0  0  0  0  0  0  0  0  0
   10.9123    0.8043   -3.1159 C   0  0  0  0  0  0  0  0  0  0  0  0
   11.9714    0.0459   -3.5546 C   0  0  0  0  0  0  0  0  0  0  0  0
   12.0401   -1.3598   -3.2845 C   0  0  0  0  0  0  0  0  0  0  0  0
   11.0507   -2.0456   -2.5709 C   0  0  0  0  0  0  0  0  0  0  0  0
    9.9772   -1.2856   -2.1270 C   0  0  0  0  0  0  0  0  0  0  0  0
    8.8494   -1.6215   -1.4108 N   0  0  0  0  0  0  0  0  0  0  0  0
    8.5579   -2.9612   -0.9423 C   0  0  0  0  0  0  0  0  0  0  0  0
    8.9855   -3.3726    0.3675 C   0  0  0  0  0  0  0  0  0  0  0  0
    8.6944   -4.6419    0.8099 C   0  0  0  0  0  0  0  0  0  0  0  0
    7.9761   -5.5832   -0.0065 C   0  0  0  0  0  0  0  0  0  0  0  0
    7.6790   -7.1924    0.6859 P   0  0  1  0  0  0  0  0  0  0  0  0
    7.8847   -7.2635    2.1842 O   0  0  0  0  0  0  0  0  0  0  0  0
    5.9593   -7.6938    0.2360 C   0  0  0  0  0  0  0  0  0  0  0  0
    5.5595   -8.1420   -1.0328 C   0  0  0  0  0  0  0  0  0  0  0  0
    4.2202   -8.4613   -1.2816 C   0  0  0  0  0  0  0  0  0  0  0  0
    3.2709   -8.3480   -0.2617 C   0  0  0  0  0  0  0  0  0  0  0  0
    3.6658   -7.9196    1.0109 C   0  0  0  0  0  0  0  0  0  0  0  0
    5.0019   -7.5963    1.2588 C   0  0  0  0  0  0  0  0  0  0  0  0
    8.7496   -8.4485   -0.1511 C   0  0  0  0  0  0  0  0  0  0  0  0
    9.1744   -9.5387    0.6252 C   0  0  0  0  0  0  0  0  0  0  0  0
   10.0098  -10.5155    0.0762 C   0  0  0  0  0  0  0  0  0  0  0  0
   10.4308  -10.4128   -1.2537 C   0  0  0  0  0  0  0  0  0  0  0  0
   10.0233   -9.3224   -2.0295 C   0  0  0  0  0  0  0  0  0  0  0  0
    9.1929   -8.3408   -1.4786 C   0  0  0  0  0  0  0  0  0  0  0  0
    7.5335   -5.1344   -1.3108 C   0  0  0  0  0  0  0  0  0  0  0  0
    7.8221   -3.8638   -1.7607 C   0  0  0  0  0  0  0  0  0  0  0  0
    6.1455   -1.2908    0.0730 C   0  0  0  0  0  0  0  0  0  0  0  0
    4.9392   -0.9950    0.6949 C   0  0  0  0  0  0  0  0  0  0  0  0
    2.9825    3.6025    1.7559 H   0  0  0  0  0  0  0  0  0  0  0  0
    1.7665    5.3611    0.5028 H   0  0  0  0  0  0  0  0  0  0  0  0
    0.0592    4.7328   -1.2010 H   0  0  0  0  0  0  0  0  0  0  0  0
   -0.4342    2.3286   -1.6422 H   0  0  0  0  0  0  0  0  0  0  0  0
    0.7935    0.5528   -0.3807 H   0  0  0  0  0  0  0  0  0  0  0  0
    4.9914    2.3271    2.8047 H   0  0  0  0  0  0  0  0  0  0  0  0
    5.4181    2.9564    5.1617 H   0  0  0  0  0  0  0  0  0  0  0  0
    3.9606    2.0710    6.9791 H   0  0  0  0  0  0  0  0  0  0  0  0
    2.0711    0.5408    6.4274 H   0  0  0  0  0  0  0  0  0  0  0  0
    1.6381   -0.0967    4.0467 H   0  0  0  0  0  0  0  0  0  0  0  0
    4.7551    2.3601    0.0291 H   0  0  0  0  0  0  0  0  0  0  0  0
    6.9162    1.8423   -1.0787 H   0  0  0  0  0  0  0  0  0  0  0  0
   10.8351    1.8756   -3.3067 H   0  0  0  0  0  0  0  0  0  0  0  0
   12.7826    0.5094   -4.1193 H   0  0  0  0  0  0  0  0  0  0  0  0
   12.9050   -1.9163   -3.6528 H   0  0  0  0  0  0  0  0  0  0  0  0
   11.1107   -3.1142   -2.3677 H   0  0  0  0  0  0  0  0  0  0  0  0
    9.5285   -2.6762    1.0113 H   0  0  0  0  0  0  0  0  0  0  0  0
    9.0010   -4.9593    1.8090 H   0  0  0  0  0  0  0  0  0  0  0  0
    6.2965   -8.2650   -1.8307 H   0  0  0  0  0  0  0  0  0  0  0  0
    3.9195   -8.8096   -2.2737 H   0  0  0  0  0  0  0  0  0  0  0  0
    2.2253   -8.6024   -0.4556 H   0  0  0  0  0  0  0  0  0  0  0  0
    2.9289   -7.8435    1.8153 H   0  0  0  0  0  0  0  0  0  0  0  0
    5.3320   -7.2756    2.2502 H   0  0  0  0  0  0  0  0  0  0  0  0
    8.8517   -9.5928    1.6678 H   0  0  0  0  0  0  0  0  0  0  0  0
   10.3383  -11.3590    0.6900 H   0  0  0  0  0  0  0  0  0  0  0  0
   11.0835  -11.1777   -1.6835 H   0  0  0  0  0  0  0  0  0  0  0  0
   10.3610   -9.2314   -3.0658 H   0  0  0  0  0  0  0  0  0  0  0  0
    8.9054   -7.4754   -2.0813 H   0  0  0  0  0  0  0  0  0  0  0  0
    6.9382   -5.7926   -1.9470 H   0  0  0  0  0  0  0  0  0  0  0  0
    7.4671   -3.5414   -2.7436 H   0  0  0  0  0  0  0  0  0  0  0  0
    6.5241   -2.3095    0.0798 H   0  0  0  0  0  0  0  0  0  0  0  0
    4.3600   -1.7892    1.1709 H   0  0  0  0  0  0  0  0  0  0  0  0
  1  2  2  0
  2  3  1  6
  2  9  1  0
  2 15  1  0
  3  4  2  0
  3  8  1  0
  4  5  1  0
  4 50  1  0
  5  6  2  0
  5 51  1  0
  6  7  1  0
  6 52  1  0
  7  8  2  0
  7 53  1  0
  8 54  1  0
  9 10  2  0
  9 14  1  0
 10 11  1  0
 10 55  1  0
 11 12  2  0
 11 56  1  0
 12 13  1  0
 12 57  1  0
 13 14  2  0
 13 58  1  0
 14 59  1  0
 15 16  2  0
 15 49  1  0
 16 17  1  0
 16 60  1  0
 17 18  2  0
 17 61  1  0
 18 19  1  0
 18 48  1  0
 19 20  2  0
 19 27  1  0
 20 21  1  0
 21 22  2  0
 21 26  1  0
 22 23  1  0
 22 62  1  0
 23 24  2  0
 23 63  1  0
 24 25  1  0
 24 64  1  0
 25 26  2  0
 25 65  1  0
 26 27  1  0
 27 28  1  0
 28 29  2  0
 28 47  1  0
 29 30  1  0
 29 66  1  0
 30 31  2  0
 30 67  1  0
 32 31  1  6
 31 46  1  0
 32 33  2  0
 32 34  1  0
 32 40  1  0
 34 35  2  0
 34 39  1  0
 35 36  1  0
 35 68  1  0
 36 37  2  0
 36 69  1  0
 37 38  1  0
 37 70  1  0
 38 39  2  0
 38 71  1  0
 39 72  1  0
 40 41  2  0
 40 45  1  0
 41 42  1  0
 41 73  1  0
 42 43  2  0
 42 74  1  0
 43 44  1  0
 43 75  1  0
 44 45  2  0
 44 76  1  0
 45 77  1  0
 46 47  2  0
 46 78  1  0
 47 79  1  0
 48 49  2  0
 48 80  1  0
 49 81  1  0
M  END

