
     RDKit          3D

 42 45  0  0  0  0  0  0  0  0999 V2000
    3.3298    0.3132    0.9092 C   0  0  0  0  0  0  0  0  0  0  0  0
    2.4315    0.1719   -0.1837 O   0  0  0  0  0  0  0  0  0  0  0  0
    2.9310   -0.5060   -1.2693 C   0  0  0  0  0  0  0  0  0  0  0  0
    3.5774    0.2117   -2.3150 C   0  0  0  0  0  0  0  0  0  0  0  0
    3.6825    1.6327   -2.2943 C   0  0  0  0  0  0  0  0  0  0  0  0
    4.3040    2.3141   -3.3177 C   0  0  0  0  0  0  0  0  0  0  0  0
    4.8425    1.6026   -4.4215 C   0  0  0  0  0  0  0  0  0  0  0  0
    4.7526    0.2287   -4.4797 C   0  0  0  0  0  0  0  0  0  0  0  0
    4.1274   -0.5133   -3.4341 C   0  0  0  0  0  0  0  0  0  0  0  0
    4.0288   -1.9342   -3.4909 C   0  0  0  0  0  0  0  0  0  0  0  0
    4.6063   -2.6121   -4.5466 O   0  0  0  0  0  0  0  0  0  0  0  0
    5.9742   -2.9547   -4.3618 C   0  0  0  0  0  0  0  0  0  0  0  0
    3.3294   -2.6015   -2.4895 C   0  0  0  0  0  0  0  0  0  0  0  0
    2.7815   -1.8818   -1.3668 C   0  0  0  0  0  0  0  0  0  0  0  0
    2.1327   -2.8647   -0.5175 C   0  0  0  0  0  0  0  0  0  0  0  0
    1.4030   -2.7874    0.6768 C   0  0  0  0  0  0  0  0  0  0  0  0
    0.8737   -3.9492    1.2524 C   0  0  0  0  0  0  0  0  0  0  0  0
    0.0833   -3.8931    2.5390 C   0  0  0  0  0  0  0  0  0  0  0  0
    1.0869   -5.1863    0.6053 C   0  0  0  0  0  0  0  0  0  0  0  0
    1.7987   -5.2925   -0.5908 C   0  0  0  0  0  0  0  0  0  0  0  0
    2.3182   -4.1194   -1.1504 C   0  0  0  0  0  0  0  0  0  0  0  0
    3.0317   -3.9532   -2.3326 N   0  0  0  0  0  0  0  0  0  0  0  0
    3.2704   -5.0294   -3.2718 C   0  0  0  0  0  0  0  0  0  0  0  0
    2.8028    0.8849    1.6863 H   0  0  0  0  0  0  0  0  0  0  0  0
    4.2418    0.8619    0.6141 H   0  0  0  0  0  0  0  0  0  0  0  0
    3.6243   -0.6685    1.3206 H   0  0  0  0  0  0  0  0  0  0  0  0
    3.2366    2.1702   -1.4558 H   0  0  0  0  0  0  0  0  0  0  0  0
    4.3696    3.4046   -3.2898 H   0  0  0  0  0  0  0  0  0  0  0  0
    5.3185    2.1512   -5.2385 H   0  0  0  0  0  0  0  0  0  0  0  0
    5.1376   -0.3157   -5.3432 H   0  0  0  0  0  0  0  0  0  0  0  0
    6.3133   -3.4422   -5.2873 H   0  0  0  0  0  0  0  0  0  0  0  0
    6.1069   -3.6533   -3.5158 H   0  0  0  0  0  0  0  0  0  0  0  0
    6.5936   -2.0602   -4.1768 H   0  0  0  0  0  0  0  0  0  0  0  0
    1.2344   -1.8153    1.1435 H   0  0  0  0  0  0  0  0  0  0  0  0
   -0.0027   -2.8622    2.9133 H   0  0  0  0  0  0  0  0  0  0  0  0
    0.5555   -4.4981    3.3318 H   0  0  0  0  0  0  0  0  0  0  0  0
   -0.9392   -4.2851    2.4039 H   0  0  0  0  0  0  0  0  0  0  0  0
    0.6761   -6.0954    1.0550 H   0  0  0  0  0  0  0  0  0  0  0  0
    1.9403   -6.2644   -1.0672 H   0  0  0  0  0  0  0  0  0  0  0  0
    2.3325   -5.5729   -3.4748 H   0  0  0  0  0  0  0  0  0  0  0  0
    4.0070   -5.7535   -2.8799 H   0  0  0  0  0  0  0  0  0  0  0  0
    3.6419   -4.6103   -4.2118 H   0  0  0  0  0  0  0  0  0  0  0  0
  1  2  1  0
  1 24  1  0
  1 25  1  0
  1 26  1  0
  2  3  1  0
  3  4  2  0
  3 14  1  0
  4  5  1  0
  4  9  1  0
  5  6  2  0
  5 27  1  0
  6  7  1  0
  6 28  1  0
  7  8  2  0
  7 29  1  0
  8  9  1  0
  8 30  1  0
  9 10  2  0
 10 11  1  0
 10 13  1  0
 11 12  1  0
 12 31  1  0
 12 32  1  0
 12 33  1  0
 13 14  2  0
 13 22  1  0
 14 15  1  0
 15 16  2  0
 15 21  1  0
 16 17  1  0
 16 34  1  0
 17 18  1  0
 17 19  2  0
 18 35  1  0
 18 36  1  0
 18 37  1  0
 19 20  1  0
 19 38  1  0
 20 21  2  0
 20 39  1  0
 21 22  1  0
 22 23  1  0
 23 40  1  0
 23 41  1  0
 23 42  1  0
M  END

