
     RDKit          3D

188192  0  0  0  0  0  0  0  0999 V2000
    8.6435    4.1366    3.0824 C   0  0  0  0  0  0  0  0  0  0  0  0
    9.5850    3.1826    3.4922 O   0  0  0  0  0  0  0  0  0  0  0  0
   10.1669    2.4648    2.4360 C   0  0  0  0  0  0  0  0  0  0  0  0
   11.1533    1.4724    3.0278 C   0  0  0  0  0  0  0  0  0  0  0  0
   11.7421    0.7575    1.9708 O   0  0  0  0  0  0  0  0  0  0  0  0
   12.6884   -0.2025    2.3728 C   0  0  0  0  0  0  0  0  0  0  0  0
   13.2470   -0.8453    1.1146 C   0  0  0  0  0  0  0  0  0  0  0  0
   14.1752   -1.8383    1.4844 O   0  0  0  0  0  0  0  0  0  0  0  0
   14.8015   -2.4666    0.3953 C   0  0  0  0  0  0  0  0  0  0  0  0
   15.8664   -3.4307    0.8971 C   0  0  0  0  0  0  0  0  0  0  0  0
   15.3774   -4.4624    1.7260 O   0  0  0  0  0  0  0  0  0  0  0  0
   14.7225   -5.5319    1.0851 C   0  0  0  0  0  0  0  0  0  0  0  0
   14.0714   -6.3660    2.1943 C   0  0  1  0  0  0  0  0  0  0  0  0
   12.8252   -5.6726    2.7192 C   0  0  0  0  0  0  0  0  0  0  0  0
   12.4574   -6.2388    3.9525 O   0  0  0  0  0  0  0  0  0  0  0  0
   11.3507   -5.6216    4.5878 C   0  0  0  0  0  0  0  0  0  0  0  0
   11.6787   -4.3277    5.3333 C   0  0  0  0  0  0  0  0  0  0  0  0
   12.3743   -4.5073    6.5416 O   0  0  0  0  0  0  0  0  0  0  0  0
   13.7493   -4.8365    6.5079 C   0  0  0  0  0  0  0  0  0  0  0  0
   14.6308   -3.9138    5.6766 C   0  0  0  0  0  0  0  0  0  0  0  0
   14.4241   -2.5777    6.0600 O   0  0  0  0  0  0  0  0  0  0  0  0
   15.0985   -1.6374    5.2589 C   0  0  0  0  0  0  0  0  0  0  0  0
   14.7215   -0.2525    5.7584 C   0  0  0  0  0  0  0  0  0  0  0  0
   15.2689    0.7027    4.8810 O   0  0  0  0  0  0  0  0  0  0  0  0
   15.1087    2.0279    5.3144 C   0  0  0  0  0  0  0  0  0  0  0  0
   13.6888   -7.6528    1.7301 O   0  0  0  0  0  0  0  0  0  0  0  0
   14.5867   -8.6713    1.6238 C   0  0  0  0  0  0  0  0  0  0  0  0
   15.9529   -8.5199    1.8537 C   0  0  0  0  0  0  0  0  0  0  0  0
   16.8736   -9.5766    1.6968 C   0  0  0  0  0  0  0  0  0  0  0  0
   18.3015   -9.4263    1.9495 C   0  0  0  0  0  0  0  0  0  0  0  0
   18.9623   -8.2759    2.2317 C   0  0  0  0  0  0  0  0  0  0  0  0
   20.3918   -8.1388    2.4919 C   0  0  0  0  0  0  0  0  0  0  0  0
   20.9317   -6.8509    2.7127 C   0  0  0  0  0  0  0  0  0  0  0  0
   22.2828   -6.6471    2.9591 C   0  0  0  0  0  0  0  0  0  0  0  0
   23.1819   -7.7386    3.0016 C   0  0  0  0  0  0  0  0  0  0  0  0
   24.6127   -7.6558    3.2473 C   0  0  0  0  0  0  0  0  0  0  0  0
   25.4463   -6.6041    3.5168 C   0  0  0  0  0  0  0  0  0  0  0  0
   24.9582   -5.2604    3.6385 C   0  0  0  0  0  0  0  0  0  0  0  0
   24.6002   -4.1596    3.7474 N   0  0  0  0  0  0  0  0  0  0  0  0
   26.9106   -6.7739    3.7239 C   0  0  0  0  0  0  0  0  0  0  0  0
   27.6060   -7.9316    3.3262 C   0  0  0  0  0  0  0  0  0  0  0  0
   28.9766   -8.0257    3.5680 C   0  0  0  0  0  0  0  0  0  0  0  0
   29.6982   -7.0686    4.1587 N   0  0  0  0  0  0  0  0  0  0  0  0
   29.0473   -5.9632    4.5266 C   0  0  0  0  0  0  0  0  0  0  0  0
   27.6780   -5.7648    4.3332 C   0  0  0  0  0  0  0  0  0  0  0  0
   22.6392   -9.0306    2.7833 C   0  0  0  0  0  0  0  0  0  0  0  0
   21.2903   -9.2295    2.5369 C   0  0  0  0  0  0  0  0  0  0  0  0
   16.3703  -10.8353    1.2710 C   0  0  0  0  0  0  0  0  0  0  0  0
   17.2883  -11.8239    1.0932 O   0  0  0  0  0  0  0  0  0  0  0  0
   16.9028  -13.1693    0.8301 C   0  0  1  0  0  0  0  0  0  0  0  0
   16.7389  -13.3880   -0.6766 C   0  0  0  0  0  0  0  0  0  0  0  0
   16.0991  -14.6284   -0.8524 O   0  0  0  0  0  0  0  0  0  0  0  0
   16.2004  -15.2202   -2.1277 C   0  0  0  0  0  0  0  0  0  0  0  0
   17.5715  -15.8374   -2.4151 C   0  0  0  0  0  0  0  0  0  0  0  0
   17.9854  -16.7528   -1.4262 O   0  0  0  0  0  0  0  0  0  0  0  0
   17.5023  -18.0767   -1.5478 C   0  0  0  0  0  0  0  0  0  0  0  0
   18.5327  -18.9673   -2.2350 C   0  0  0  0  0  0  0  0  0  0  0  0
   17.9976  -20.2639   -2.3034 O   0  0  0  0  0  0  0  0  0  0  0  0
   18.8147  -21.2377   -2.9106 C   0  0  0  0  0  0  0  0  0  0  0  0
   19.9104  -21.7932   -2.0119 C   0  0  0  0  0  0  0  0  0  0  0  0
   19.3298  -22.5080   -0.9550 O   0  0  0  0  0  0  0  0  0  0  0  0
   20.2582  -23.0455   -0.0540 C   0  0  0  0  0  0  0  0  0  0  0  0
   17.9691  -14.0824    1.4103 C   0  0  0  0  0  0  0  0  0  0  0  0
   17.8665  -14.0784    2.8106 O   0  0  0  0  0  0  0  0  0  0  0  0
   18.8244  -14.8740    3.4622 C   0  0  0  0  0  0  0  0  0  0  0  0
   18.5528  -14.8112    4.9557 C   0  0  0  0  0  0  0  0  0  0  0  0
   19.5310  -15.5812    5.6074 O   0  0  0  0  0  0  0  0  0  0  0  0
   19.3985  -15.6284    7.0056 C   0  0  0  0  0  0  0  0  0  0  0  0
   20.5244  -16.4871    7.5566 C   0  0  0  0  0  0  0  0  0  0  0  0
   20.3901  -16.5388    8.9536 O   0  0  0  0  0  0  0  0  0  0  0  0
   21.3740  -17.3026    9.6044 C   0  0  0  0  0  0  0  0  0  0  0  0
   21.0910  -17.2673   11.0966 C   0  0  0  0  0  0  0  0  0  0  0  0
   22.0755  -18.0296   11.7446 O   0  0  0  0  0  0  0  0  0  0  0  0
   21.9302  -18.0812   13.1375 C   0  0  0  0  0  0  0  0  0  0  0  0
   15.0011  -10.9897    1.0502 C   0  0  0  0  0  0  0  0  0  0  0  0
   14.0729   -9.9436    1.2388 C   0  0  0  0  0  0  0  0  0  0  0  0
   12.6634  -10.2550    1.0236 C   0  0  0  0  0  0  0  0  0  0  0  0
   11.5635   -9.5544    1.4007 C   0  0  0  0  0  0  0  0  0  0  0  0
   10.1779   -9.9583    1.1749 C   0  0  0  0  0  0  0  0  0  0  0  0
    9.7930  -11.0513    0.3626 C   0  0  0  0  0  0  0  0  0  0  0  0
    8.4623  -11.3970    0.1840 C   0  0  0  0  0  0  0  0  0  0  0  0
    7.4251  -10.6626    0.8124 C   0  0  0  0  0  0  0  0  0  0  0  0
    6.0010  -10.9332    0.6974 C   0  0  0  0  0  0  0  0  0  0  0  0
    5.2935  -11.9056    0.0438 C   0  0  0  0  0  0  0  0  0  0  0  0
    5.9420  -12.9494   -0.6972 C   0  0  0  0  0  0  0  0  0  0  0  0
    6.4292  -13.8125   -1.3050 N   0  0  0  0  0  0  0  0  0  0  0  0
    3.8062  -11.9687    0.0677 C   0  0  0  0  0  0  0  0  0  0  0  0
    3.0044  -10.8772    0.4519 C   0  0  0  0  0  0  0  0  0  0  0  0
    1.6165  -11.0164    0.4646 C   0  0  0  0  0  0  0  0  0  0  0  0
    0.9751  -12.1377    0.1224 N   0  0  0  0  0  0  0  0  0  0  0  0
    1.7290  -13.1720   -0.2552 C   0  0  0  0  0  0  0  0  0  0  0  0
    3.1249  -13.1418   -0.3039 C   0  0  0  0  0  0  0  0  0  0  0  0
    7.8099   -9.5645    1.6178 C   0  0  0  0  0  0  0  0  0  0  0  0
    9.1434   -9.2207    1.7914 C   0  0  0  0  0  0  0  0  0  0  0  0
    8.2529    4.6339    3.9824 H   0  0  0  0  0  0  0  0  0  0  0  0
    7.7941    3.6757    2.5376 H   0  0  0  0  0  0  0  0  0  0  0  0
    9.0915    4.9064    2.4209 H   0  0  0  0  0  0  0  0  0  0  0  0
   10.6995    3.1370    1.7310 H   0  0  0  0  0  0  0  0  0  0  0  0
    9.4025    1.9175    1.8455 H   0  0  0  0  0  0  0  0  0  0  0  0
   10.6211    0.7960    3.7276 H   0  0  0  0  0  0  0  0  0  0  0  0
   11.9148    2.0188    3.6208 H   0  0  0  0  0  0  0  0  0  0  0  0
   12.2229   -0.9816    3.0122 H   0  0  0  0  0  0  0  0  0  0  0  0
   13.5107    0.2546    2.9576 H   0  0  0  0  0  0  0  0  0  0  0  0
   13.7263   -0.0657    0.4886 H   0  0  0  0  0  0  0  0  0  0  0  0
   12.4159   -1.2748    0.5185 H   0  0  0  0  0  0  0  0  0  0  0  0
   15.2992   -1.7220   -0.2616 H   0  0  0  0  0  0  0  0  0  0  0  0
   14.0531   -2.9902   -0.2364 H   0  0  0  0  0  0  0  0  0  0  0  0
   16.5894   -2.8687    1.5085 H   0  0  0  0  0  0  0  0  0  0  0  0
   16.4082   -3.8463    0.0236 H   0  0  0  0  0  0  0  0  0  0  0  0
   15.4368   -6.1461    0.5042 H   0  0  0  0  0  0  0  0  0  0  0  0
   13.9427   -5.1863    0.3786 H   0  0  0  0  0  0  0  0  0  0  0  0
   14.7860   -6.4556    3.0294 H   0  0  0  0  0  0  0  0  0  0  0  0
   12.0096   -5.7862    1.9747 H   0  0  0  0  0  0  0  0  0  0  0  0
   13.0548   -4.5949    2.8054 H   0  0  0  0  0  0  0  0  0  0  0  0
   10.9631   -6.3541    5.3138 H   0  0  0  0  0  0  0  0  0  0  0  0
   10.5486   -5.4177    3.8478 H   0  0  0  0  0  0  0  0  0  0  0  0
   10.7206   -3.8575    5.6135 H   0  0  0  0  0  0  0  0  0  0  0  0
   12.1935   -3.6105    4.6657 H   0  0  0  0  0  0  0  0  0  0  0  0
   13.9141   -5.8711    6.1513 H   0  0  0  0  0  0  0  0  0  0  0  0
   14.0729   -4.7838    7.5594 H   0  0  0  0  0  0  0  0  0  0  0  0
   14.4413   -4.0360    4.5926 H   0  0  0  0  0  0  0  0  0  0  0  0
   15.6865   -4.2231    5.8366 H   0  0  0  0  0  0  0  0  0  0  0  0
   14.8165   -1.7417    4.1923 H   0  0  0  0  0  0  0  0  0  0  0  0
   16.1990   -1.7688    5.3179 H   0  0  0  0  0  0  0  0  0  0  0  0
   15.1010   -0.1106    6.7908 H   0  0  0  0  0  0  0  0  0  0  0  0
   13.6160   -0.1708    5.8060 H   0  0  0  0  0  0  0  0  0  0  0  0
   15.5765    2.6861    4.5676 H   0  0  0  0  0  0  0  0  0  0  0  0
   15.5964    2.2025    6.2945 H   0  0  0  0  0  0  0  0  0  0  0  0
   14.0401    2.3086    5.4130 H   0  0  0  0  0  0  0  0  0  0  0  0
   16.3371   -7.5537    2.1744 H   0  0  0  0  0  0  0  0  0  0  0  0
   18.8635  -10.3598    1.8910 H   0  0  0  0  0  0  0  0  0  0  0  0
   18.4056   -7.3337    2.2654 H   0  0  0  0  0  0  0  0  0  0  0  0
   20.2625   -5.9866    2.6870 H   0  0  0  0  0  0  0  0  0  0  0  0
   22.6375   -5.6305    3.1202 H   0  0  0  0  0  0  0  0  0  0  0  0
   25.1044   -8.6315    3.2223 H   0  0  0  0  0  0  0  0  0  0  0  0
   27.1032   -8.7519    2.8113 H   0  0  0  0  0  0  0  0  0  0  0  0
   29.5195   -8.9263    3.2567 H   0  0  0  0  0  0  0  0  0  0  0  0
   29.6445   -5.1789    5.0067 H   0  0  0  0  0  0  0  0  0  0  0  0
   27.2144   -4.8319    4.6600 H   0  0  0  0  0  0  0  0  0  0  0  0
   23.3077   -9.8956    2.8124 H   0  0  0  0  0  0  0  0  0  0  0  0
   20.9247  -10.2458    2.3798 H   0  0  0  0  0  0  0  0  0  0  0  0
   15.9514  -13.4055    1.3339 H   0  0  0  0  0  0  0  0  0  0  0  0
   17.7365  -13.3547   -1.1552 H   0  0  0  0  0  0  0  0  0  0  0  0
   16.1413  -12.5655   -1.1165 H   0  0  0  0  0  0  0  0  0  0  0  0
   15.9587  -14.4949   -2.9327 H   0  0  0  0  0  0  0  0  0  0  0  0
   15.4262  -16.0036   -2.1530 H   0  0  0  0  0  0  0  0  0  0  0  0
   18.3454  -15.0532   -2.4530 H   0  0  0  0  0  0  0  0  0  0  0  0
   17.5409  -16.2991   -3.4226 H   0  0  0  0  0  0  0  0  0  0  0  0
   16.5479  -18.1257   -2.1031 H   0  0  0  0  0  0  0  0  0  0  0  0
   17.3078  -18.4660   -0.5359 H   0  0  0  0  0  0  0  0  0  0  0  0
   19.4772  -18.9260   -1.6575 H   0  0  0  0  0  0  0  0  0  0  0  0
   18.7589  -18.5778   -3.2515 H   0  0  0  0  0  0  0  0  0  0  0  0
   19.2808  -20.8409   -3.8362 H   0  0  0  0  0  0  0  0  0  0  0  0
   18.1489  -22.0683   -3.1946 H   0  0  0  0  0  0  0  0  0  0  0  0
   20.5571  -20.9746   -1.6289 H   0  0  0  0  0  0  0  0  0  0  0  0
   20.5666  -22.4484   -2.6270 H   0  0  0  0  0  0  0  0  0  0  0  0
   19.6994  -23.5825    0.7264 H   0  0  0  0  0  0  0  0  0  0  0  0
   20.8723  -22.2591    0.4317 H   0  0  0  0  0  0  0  0  0  0  0  0
   20.9519  -23.7598   -0.5445 H   0  0  0  0  0  0  0  0  0  0  0  0
   18.9677  -13.7237    1.0828 H   0  0  0  0  0  0  0  0  0  0  0  0
   17.8231  -15.0969    0.9920 H   0  0  0  0  0  0  0  0  0  0  0  0
   19.8545  -14.5139    3.2606 H   0  0  0  0  0  0  0  0  0  0  0  0
   18.7764  -15.9276    3.1195 H   0  0  0  0  0  0  0  0  0  0  0  0
   17.5323  -15.1928    5.1631 H   0  0  0  0  0  0  0  0  0  0  0  0
   18.5789  -13.7541    5.2909 H   0  0  0  0  0  0  0  0  0  0  0  0
   18.4225  -16.0622    7.3052 H   0  0  0  0  0  0  0  0  0  0  0  0
   19.4543  -14.6145    7.4520 H   0  0  0  0  0  0  0  0  0  0  0  0
   21.5005  -16.0516    7.2593 H   0  0  0  0  0  0  0  0  0  0  0  0
   20.4703  -17.4997    7.1064 H   0  0  0  0  0  0  0  0  0  0  0  0
   22.3903  -16.9015    9.4123 H   0  0  0  0  0  0  0  0  0  0  0  0
   21.3681  -18.3546    9.2526 H   0  0  0  0  0  0  0  0  0  0  0  0
   20.0738  -17.6684   11.2882 H   0  0  0  0  0  0  0  0  0  0  0  0
   21.0947  -16.2141   11.4477 H   0  0  0  0  0  0  0  0  0  0  0  0
   22.7466  -18.6991   13.5396 H   0  0  0  0  0  0  0  0  0  0  0  0
   20.9636  -18.5348   13.4387 H   0  0  0  0  0  0  0  0  0  0  0  0
   21.9896  -17.0745   13.6000 H   0  0  0  0  0  0  0  0  0  0  0  0
   14.6062  -11.9545    0.7326 H   0  0  0  0  0  0  0  0  0  0  0  0
   12.5081  -11.2213    0.5317 H   0  0  0  0  0  0  0  0  0  0  0  0
   11.6997   -8.6257    1.9545 H   0  0  0  0  0  0  0  0  0  0  0  0
   10.5548  -11.6398   -0.1524 H   0  0  0  0  0  0  0  0  0  0  0  0
    8.2265  -12.2463   -0.4550 H   0  0  0  0  0  0  0  0  0  0  0  0
    5.3882  -10.2234    1.2588 H   0  0  0  0  0  0  0  0  0  0  0  0
    3.4407   -9.9136    0.7199 H   0  0  0  0  0  0  0  0  0  0  0  0
    0.9910  -10.1662    0.7621 H   0  0  0  0  0  0  0  0  0  0  0  0
    1.1981  -14.0882   -0.5397 H   0  0  0  0  0  0  0  0  0  0  0  0
    3.6748  -14.0286   -0.6249 H   0  0  0  0  0  0  0  0  0  0  0  0
    7.0354   -8.9738    2.1149 H   0  0  0  0  0  0  0  0  0  0  0  0
    9.4044   -8.3680    2.4234 H   0  0  0  0  0  0  0  0  0  0  0  0
  1  2  1  0
  1 95  1  0
  1 96  1  0
  1 97  1  0
  2  3  1  0
  3  4  1  0
  3 98  1  0
  3 99  1  0
  4  5  1  0
  4100  1  0
  4101  1  0
  5  6  1  0
  6  7  1  0
  6102  1  0
  6103  1  0
  7  8  1  0
  7104  1  0
  7105  1  0
  8  9  1  0
  9 10  1  0
  9106  1  0
  9107  1  0
 10 11  1  0
 10108  1  0
 10109  1  0
 11 12  1  0
 12 13  1  0
 12110  1  0
 12111  1  0
 13 14  1  0
 13 26  1  0
 13112  1  1
 14 15  1  0
 14113  1  0
 14114  1  0
 15 16  1  0
 16 17  1  0
 16115  1  0
 16116  1  0
 17 18  1  0
 17117  1  0
 17118  1  0
 18 19  1  0
 19 20  1  0
 19119  1  0
 19120  1  0
 20 21  1  0
 20121  1  0
 20122  1  0
 21 22  1  0
 22 23  1  0
 22123  1  0
 22124  1  0
 23 24  1  0
 23125  1  0
 23126  1  0
 24 25  1  0
 25127  1  0
 25128  1  0
 25129  1  0
 26 27  1  0
 27 28  2  0
 27 76  1  0
 28 29  1  0
 28130  1  0
 29 30  1  0
 29 48  2  0
 30 31  2  0
 30131  1  0
 31 32  1  0
 31132  1  0
 32 33  2  0
 32 47  1  0
 33 34  1  0
 33133  1  0
 34 35  2  0
 34134  1  0
 35 36  1  0
 35 46  1  0
 36 37  2  0
 36135  1  0
 37 38  1  0
 37 40  1  0
 38 39  3  0
 40 41  2  0
 40 45  1  0
 41 42  1  0
 41136  1  0
 42 43  2  0
 42137  1  0
 43 44  1  0
 44 45  2  0
 44138  1  0
 45139  1  0
 46 47  2  0
 46140  1  0
 47141  1  0
 48 49  1  0
 48 75  1  0
 49 50  1  0
 50 51  1  0
 50 63  1  0
 50142  1  1
 51 52  1  0
 51143  1  0
 51144  1  0
 52 53  1  0
 53 54  1  0
 53145  1  0
 53146  1  0
 54 55  1  0
 54147  1  0
 54148  1  0
 55 56  1  0
 56 57  1  0
 56149  1  0
 56150  1  0
 57 58  1  0
 57151  1  0
 57152  1  0
 58 59  1  0
 59 60  1  0
 59153  1  0
 59154  1  0
 60 61  1  0
 60155  1  0
 60156  1  0
 61 62  1  0
 62157  1  0
 62158  1  0
 62159  1  0
 63 64  1  0
 63160  1  0
 63161  1  0
 64 65  1  0
 65 66  1  0
 65162  1  0
 65163  1  0
 66 67  1  0
 66164  1  0
 66165  1  0
 67 68  1  0
 68 69  1  0
 68166  1  0
 68167  1  0
 69 70  1  0
 69168  1  0
 69169  1  0
 70 71  1  0
 71 72  1  0
 71170  1  0
 71171  1  0
 72 73  1  0
 72172  1  0
 72173  1  0
 73 74  1  0
 74174  1  0
 74175  1  0
 74176  1  0
 75 76  2  0
 75177  1  0
 76 77  1  0
 77 78  2  0
 77178  1  0
 78 79  1  0
 78179  1  0
 79 80  2  0
 79 94  1  0
 80 81  1  0
 80180  1  0
 81 82  2  0
 81181  1  0
 82 83  1  0
 82 93  1  0
 83 84  2  0
 83182  1  0
 84 85  1  0
 84 87  1  0
 85 86  3  0
 87 88  2  0
 87 92  1  0
 88 89  1  0
 88183  1  0
 89 90  2  0
 89184  1  0
 90 91  1  0
 91 92  2  0
 91185  1  0
 92186  1  0
 93 94  2  0
 93187  1  0
 94188  1  0
M  END

