
     RDKit          3D

 44 48  0  0  0  0  0  0  0  0999 V2000
    6.4589   -4.3182    1.5162 N   0  0  0  0  0  0  0  0  0  0  0  0
    6.0648   -3.2676    1.1865 C   0  0  0  0  0  0  0  0  0  0  0  0
    5.5550   -2.0063    0.7860 C   0  0  0  0  0  0  0  0  0  0  0  0
    6.4241   -0.9425    0.5046 C   0  0  0  0  0  0  0  0  0  0  0  0
    5.9499    0.3146    0.1022 C   0  0  0  0  0  0  0  0  0  0  0  0
    6.8532    1.3729   -0.1708 C   0  0  0  0  0  0  0  0  0  0  0  0
    7.5764    2.2633   -0.3997 N   0  0  0  0  0  0  0  0  0  0  0  0
    4.5141    0.5154   -0.0308 C   0  0  0  0  0  0  0  0  0  0  0  0
    3.6458   -0.5431    0.2555 C   0  0  0  0  0  0  0  0  0  0  0  0
    2.1717   -0.3294    0.1269 C   0  0  0  0  0  0  0  0  0  0  0  0
    1.2676   -0.9137    1.0335 C   0  0  0  0  0  0  0  0  0  0  0  0
   -0.1100   -0.7195    0.9233 C   0  0  0  0  0  0  0  0  0  0  0  0
   -0.6027    0.0800   -0.1099 C   0  0  0  0  0  0  0  0  0  0  0  0
   -2.0334    0.2957   -0.2288 N   0  0  0  0  0  0  0  0  0  0  0  0
   -2.7283    1.3436    0.3349 C   0  0  0  0  0  0  0  0  0  0  0  0
   -2.2277    2.3957    1.1235 C   0  0  0  0  0  0  0  0  0  0  0  0
   -3.1445    3.3417    1.5824 C   0  0  0  0  0  0  0  0  0  0  0  0
   -4.5076    3.2373    1.2639 C   0  0  0  0  0  0  0  0  0  0  0  0
   -5.0038    2.1764    0.4705 C   0  0  0  0  0  0  0  0  0  0  0  0
   -4.1120    1.2247    0.0033 C   0  0  0  0  0  0  0  0  0  0  0  0
   -4.2278    0.0169   -0.8146 C   0  0  0  0  0  0  0  0  0  0  0  0
   -5.2742   -0.6405   -1.4408 C   0  0  0  0  0  0  0  0  0  0  0  0
   -4.9933   -1.8210   -2.1681 C   0  0  0  0  0  0  0  0  0  0  0  0
   -3.6895   -2.3317   -2.2656 C   0  0  0  0  0  0  0  0  0  0  0  0
   -2.6199   -1.6869   -1.6439 C   0  0  0  0  0  0  0  0  0  0  0  0
   -2.9066   -0.5139   -0.9223 C   0  0  0  0  0  0  0  0  0  0  0  0
    0.2628    0.6781   -1.0280 C   0  0  0  0  0  0  0  0  0  0  0  0
    1.6365    0.4658   -0.9037 C   0  0  0  0  0  0  0  0  0  0  0  0
    4.1199   -1.7951    0.6613 C   0  0  0  0  0  0  0  0  0  0  0  0
    7.5010   -1.0972    0.6015 H   0  0  0  0  0  0  0  0  0  0  0  0
    4.1406    1.5054   -0.2867 H   0  0  0  0  0  0  0  0  0  0  0  0
    1.6575   -1.5213    1.8512 H   0  0  0  0  0  0  0  0  0  0  0  0
   -0.7929   -1.1790    1.6419 H   0  0  0  0  0  0  0  0  0  0  0  0
   -1.1660    2.4599    1.3606 H   0  0  0  0  0  0  0  0  0  0  0  0
   -2.7968    4.1733    2.1971 H   0  0  0  0  0  0  0  0  0  0  0  0
   -5.2035    3.9915    1.6362 H   0  0  0  0  0  0  0  0  0  0  0  0
   -6.0690    2.1191    0.2386 H   0  0  0  0  0  0  0  0  0  0  0  0
   -6.2976   -0.2652   -1.3814 H   0  0  0  0  0  0  0  0  0  0  0  0
   -5.8120   -2.3455   -2.6644 H   0  0  0  0  0  0  0  0  0  0  0  0
   -3.5096   -3.2446   -2.8352 H   0  0  0  0  0  0  0  0  0  0  0  0
   -1.6008   -2.0677   -1.7081 H   0  0  0  0  0  0  0  0  0  0  0  0
   -0.1306    1.2971   -1.8377 H   0  0  0  0  0  0  0  0  0  0  0  0
    2.3145    0.9161   -1.6297 H   0  0  0  0  0  0  0  0  0  0  0  0
    3.4459   -2.6345    0.8234 H   0  0  0  0  0  0  0  0  0  0  0  0
  1  2  3  0
  2  3  1  0
  3  4  2  0
  3 29  1  0
  4  5  1  0
  4 30  1  0
  5  6  1  0
  5  8  2  0
  6  7  3  0
  8  9  1  0
  8 31  1  0
  9 10  1  0
  9 29  2  0
 10 11  2  0
 10 28  1  0
 11 12  1  0
 11 32  1  0
 12 13  2  0
 12 33  1  0
 13 14  1  0
 13 27  1  0
 14 15  1  0
 14 26  1  0
 15 16  2  0
 15 20  1  0
 16 17  1  0
 16 34  1  0
 17 18  2  0
 17 35  1  0
 18 19  1  0
 18 36  1  0
 19 20  2  0
 19 37  1  0
 20 21  1  0
 21 22  1  0
 21 26  2  0
 22 23  2  0
 22 38  1  0
 23 24  1  0
 23 39  1  0
 24 25  2  0
 24 40  1  0
 25 26  1  0
 25 41  1  0
 27 28  2  0
 27 42  1  0
 28 43  1  0
 29 44  1  0
M  END

