
     RDKit          3D

 52 55  0  0  0  0  0  0  0  0999 V2000
    1.0071   -0.5838    0.7075 C   0  0  0  0  0  0  0  0  0  0  0  0
    2.4900   -0.4839    0.4227 C   0  0  0  0  0  0  0  0  0  0  0  0
    3.0599    0.4430    1.3709 O   0  0  0  0  0  0  0  0  0  0  0  0
    4.3429    0.7278    1.2250 C   0  0  0  0  0  0  0  0  0  0  0  0
    5.1153    0.1716    0.4816 O   0  0  0  0  0  0  0  0  0  0  0  0
    4.8130    1.7942    2.1682 C   0  0  0  0  0  0  0  0  0  0  0  0
    4.8480    3.2494    2.0303 C   0  0  0  0  0  0  0  0  0  0  0  0
    4.3338    4.1358    1.0173 C   0  0  0  0  0  0  0  0  0  0  0  0
    4.5010    5.5432    1.2059 C   0  0  0  0  0  0  0  0  0  0  0  0
    4.0269    6.4556    0.2537 C   0  0  0  0  0  0  0  0  0  0  0  0
    4.1532    7.8771    0.3534 C   0  0  0  0  0  0  0  0  0  0  0  0
    3.6553    8.7055   -0.6362 C   0  0  0  0  0  0  0  0  0  0  0  0
    3.0095    8.1610   -1.7685 C   0  0  0  0  0  0  0  0  0  0  0  0
    2.8662    6.7755   -1.9011 C   0  0  0  0  0  0  0  0  0  0  0  0
    3.3641    5.9337   -0.9083 C   0  0  0  0  0  0  0  0  0  0  0  0
    3.2005    4.5972   -1.0705 O   0  0  0  0  0  0  0  0  0  0  0  0
    3.6713    3.6394   -0.1634 C   0  0  0  0  0  0  0  0  0  0  0  0
    3.4688    2.4835   -0.4754 O   0  0  0  0  0  0  0  0  0  0  0  0
    5.4853    3.7760    3.0912 N   0  0  0  0  0  0  0  0  0  0  0  0
    5.8572    2.7464    3.8856 N   0  0  0  0  0  0  0  0  0  0  0  0
    6.4112    3.0465    5.1341 C   0  0  0  0  0  0  0  0  0  0  0  0
    6.2249    2.2004    6.2500 C   0  0  0  0  0  0  0  0  0  0  0  0
    6.7620    2.5626    7.4802 C   0  0  0  0  0  0  0  0  0  0  0  0
    7.4825    3.7540    7.6312 C   0  0  0  0  0  0  0  0  0  0  0  0
    7.6447    4.5946    6.5185 C   0  0  0  0  0  0  0  0  0  0  0  0
    8.5333    6.0840    6.6998 Cl  0  0  0  0  0  0  0  0  0  0  0  0
    7.1131    4.2636    5.2781 C   0  0  0  0  0  0  0  0  0  0  0  0
    5.4871    1.5206    3.3409 C   0  0  0  0  0  0  0  0  0  0  0  0
    5.9136    0.1600    3.7623 C   0  0  0  0  0  0  0  0  0  0  0  0
    5.2596   -0.8290    3.5336 O   0  0  0  0  0  0  0  0  0  0  0  0
    7.1266    0.1586    4.3374 O   0  0  0  0  0  0  0  0  0  0  0  0
    7.6996   -1.1244    4.6755 C   0  0  0  0  0  0  0  0  0  0  0  0
    7.2363   -1.6185    6.0352 C   0  0  0  0  0  0  0  0  0  0  0  0
    0.5378   -1.2866    0.0015 H   0  0  0  0  0  0  0  0  0  0  0  0
    0.5219    0.3974    0.5929 H   0  0  0  0  0  0  0  0  0  0  0  0
    0.8231   -0.9468    1.7306 H   0  0  0  0  0  0  0  0  0  0  0  0
    2.6943   -0.0992   -0.5877 H   0  0  0  0  0  0  0  0  0  0  0  0
    3.0010   -1.4538    0.5306 H   0  0  0  0  0  0  0  0  0  0  0  0
    4.9994    5.8957    2.1082 H   0  0  0  0  0  0  0  0  0  0  0  0
    4.6540    8.2936    1.2311 H   0  0  0  0  0  0  0  0  0  0  0  0
    3.7612    9.7893   -0.5436 H   0  0  0  0  0  0  0  0  0  0  0  0
    2.6185    8.8219   -2.5456 H   0  0  0  0  0  0  0  0  0  0  0  0
    2.3712    6.3286   -2.7653 H   0  0  0  0  0  0  0  0  0  0  0  0
    5.6281    1.2945    6.1630 H   0  0  0  0  0  0  0  0  0  0  0  0
    6.6049    1.9165    8.3469 H   0  0  0  0  0  0  0  0  0  0  0  0
    7.9041    4.0407    8.5955 H   0  0  0  0  0  0  0  0  0  0  0  0
    7.2342    4.9177    4.4172 H   0  0  0  0  0  0  0  0  0  0  0  0
    8.7842   -0.9484    4.6602 H   0  0  0  0  0  0  0  0  0  0  0  0
    7.4390   -1.8421    3.8845 H   0  0  0  0  0  0  0  0  0  0  0  0
    7.4799   -0.8928    6.8266 H   0  0  0  0  0  0  0  0  0  0  0  0
    7.7437   -2.5666    6.2747 H   0  0  0  0  0  0  0  0  0  0  0  0
    6.1522   -1.8056    6.0379 H   0  0  0  0  0  0  0  0  0  0  0  0
  1  2  1  0
  1 34  1  0
  1 35  1  0
  1 36  1  0
  2  3  1  0
  2 37  1  0
  2 38  1  0
  3  4  1  0
  4  5  2  0
  4  6  1  0
  6  7  1  0
  6 28  2  0
  7  8  1  0
  7 19  2  0
  8  9  2  0
  8 17  1  0
  9 10  1  0
  9 39  1  0
 10 11  2  0
 10 15  1  0
 11 12  1  0
 11 40  1  0
 12 13  2  0
 12 41  1  0
 13 14  1  0
 13 42  1  0
 14 15  2  0
 14 43  1  0
 15 16  1  0
 16 17  1  0
 17 18  2  0
 19 20  1  0
 20 21  1  0
 20 28  1  0
 21 22  2  0
 21 27  1  0
 22 23  1  0
 22 44  1  0
 23 24  2  0
 23 45  1  0
 24 25  1  0
 24 46  1  0
 25 26  1  0
 25 27  2  0
 27 47  1  0
 28 29  1  0
 29 30  2  0
 29 31  1  0
 31 32  1  0
 32 33  1  0
 32 48  1  0
 32 49  1  0
 33 50  1  0
 33 51  1  0
 33 52  1  0
M  END

