
     RDKit          3D

 64 70  0  0  0  0  0  0  0  0999 V2000
    6.5374    1.0337   -1.7923 C   0  0  0  0  0  0  0  0  0  0  0  0
    5.3426    0.6873   -0.9029 C   0  0  0  0  0  0  0  0  0  0  0  0
    5.7178   -0.1888    0.2961 C   0  0  0  0  0  0  0  0  0  0  0  0
    4.5093   -0.5194    1.1763 C   0  0  0  0  0  0  0  0  0  0  0  0
    4.8495   -1.3721    2.3266 N   0  0  0  0  0  0  0  0  0  0  0  0
    4.7817   -2.7608    2.1463 C   0  0  0  0  0  0  0  0  0  0  0  0
    4.4572   -3.2383    1.0737 O   0  0  0  0  0  0  0  0  0  0  0  0
    5.1160   -3.6091    3.3218 C   0  0  0  0  0  0  0  0  0  0  0  0
    5.0050   -4.9879    3.2171 C   0  0  0  0  0  0  0  0  0  0  0  0
    5.2678   -5.8027    4.3254 C   0  0  0  0  0  0  0  0  0  0  0  0
    5.6812   -5.2676    5.5504 C   0  0  0  0  0  0  0  0  0  0  0  0
    5.8726   -6.0939    6.7479 C   0  0  0  0  0  0  0  0  0  0  0  0
    5.4685   -7.4332    6.7860 C   0  0  0  0  0  0  0  0  0  0  0  0
    5.6861   -8.2446    7.9046 C   0  0  0  0  0  0  0  0  0  0  0  0
    6.3479   -7.7349    9.0114 C   0  0  0  0  0  0  0  0  0  0  0  0
    6.7716   -6.3834    9.0144 C   0  0  0  0  0  0  0  0  0  0  0  0
    7.4921   -5.8918   10.1291 C   0  0  0  0  0  0  0  0  0  0  0  0
    7.9746   -4.5996   10.1087 C   0  0  0  0  0  0  0  0  0  0  0  0
    7.6960   -3.7369    9.0312 C   0  0  0  0  0  0  0  0  0  0  0  0
    8.6330   -2.0702    9.1770 Br  0  0  0  0  0  0  0  0  0  0  0  0
    6.8837   -4.1287    7.9462 C   0  0  0  0  0  0  0  0  0  0  0  0
    6.3932   -3.2550    6.8585 C   0  0  0  0  0  0  0  0  0  0  0  0
    6.3567   -1.8587    6.9465 C   0  0  0  0  0  0  0  0  0  0  0  0
    5.9642   -1.0506    5.8680 C   0  0  0  0  0  0  0  0  0  0  0  0
    5.5994   -1.6162    4.6584 C   0  0  0  0  0  0  0  0  0  0  0  0
    5.5404   -3.0278    4.5430 C   0  0  0  0  0  0  0  0  0  0  0  0
    5.8866   -3.8578    5.6567 C   0  0  0  0  0  0  0  0  0  0  0  0
    5.2440   -0.7365    3.5122 C   0  0  0  0  0  0  0  0  0  0  0  0
    5.2903    0.4781    3.5879 O   0  0  0  0  0  0  0  0  0  0  0  0
    6.5013   -5.5228    7.9041 C   0  0  0  0  0  0  0  0  0  0  0  0
    7.7853   -6.7522   11.3093 C   0  0  0  0  0  0  0  0  0  0  0  0
    8.3975   -6.3331   12.2744 O   0  0  0  0  0  0  0  0  0  0  0  0
    7.3202   -8.0727   11.2531 N   0  0  0  0  0  0  0  0  0  0  0  0
    7.5731   -8.9520   12.4111 C   0  0  0  0  0  0  0  0  0  0  0  0
    8.7351   -9.9324   12.2129 C   0  0  0  0  0  0  0  0  0  0  0  0
   10.1102   -9.2914   12.0013 C   0  0  0  0  0  0  0  0  0  0  0  0
   11.2318  -10.3238   11.8747 C   0  0  0  0  0  0  0  0  0  0  0  0
    6.6031   -8.6201   10.1791 C   0  0  0  0  0  0  0  0  0  0  0  0
    6.2125   -9.7731   10.2149 O   0  0  0  0  0  0  0  0  0  0  0  0
    6.2374    1.6646   -2.6440 H   0  0  0  0  0  0  0  0  0  0  0  0
    7.0090    0.1242   -2.2007 H   0  0  0  0  0  0  0  0  0  0  0  0
    7.3106    1.5810   -1.2277 H   0  0  0  0  0  0  0  0  0  0  0  0
    4.5720    0.1711   -1.5037 H   0  0  0  0  0  0  0  0  0  0  0  0
    4.8703    1.6182   -0.5402 H   0  0  0  0  0  0  0  0  0  0  0  0
    6.4773    0.3270    0.9084 H   0  0  0  0  0  0  0  0  0  0  0  0
    6.1705   -1.1301   -0.0602 H   0  0  0  0  0  0  0  0  0  0  0  0
    3.7516   -1.0576    0.5924 H   0  0  0  0  0  0  0  0  0  0  0  0
    4.0715    0.4028    1.5797 H   0  0  0  0  0  0  0  0  0  0  0  0
    4.6893   -5.4163    2.2642 H   0  0  0  0  0  0  0  0  0  0  0  0
    5.1426   -6.8796    4.2141 H   0  0  0  0  0  0  0  0  0  0  0  0
    4.9608   -7.8683    5.9257 H   0  0  0  0  0  0  0  0  0  0  0  0
    5.3572   -9.2850    7.9218 H   0  0  0  0  0  0  0  0  0  0  0  0
    8.5797   -4.2565   10.9481 H   0  0  0  0  0  0  0  0  0  0  0  0
    6.6361   -1.3647    7.8712 H   0  0  0  0  0  0  0  0  0  0  0  0
    5.9577    0.0368    5.9621 H   0  0  0  0  0  0  0  0  0  0  0  0
    6.6479   -9.5157   12.5908 H   0  0  0  0  0  0  0  0  0  0  0  0
    7.7668   -8.2900   13.2636 H   0  0  0  0  0  0  0  0  0  0  0  0
    8.4954  -10.6047   11.3722 H   0  0  0  0  0  0  0  0  0  0  0  0
    8.7658  -10.5726   13.1132 H   0  0  0  0  0  0  0  0  0  0  0  0
   10.3267   -8.5995   12.8332 H   0  0  0  0  0  0  0  0  0  0  0  0
   10.0898   -8.6654   11.0918 H   0  0  0  0  0  0  0  0  0  0  0  0
   11.3124  -10.9422   12.7845 H   0  0  0  0  0  0  0  0  0  0  0  0
   12.2087   -9.8407   11.7141 H   0  0  0  0  0  0  0  0  0  0  0  0
   11.0546  -11.0080   11.0279 H   0  0  0  0  0  0  0  0  0  0  0  0
  1  2  1  0
  1 40  1  0
  1 41  1  0
  1 42  1  0
  2  3  1  0
  2 43  1  0
  2 44  1  0
  3  4  1  0
  3 45  1  0
  3 46  1  0
  4  5  1  0
  4 47  1  0
  4 48  1  0
  5  6  1  0
  5 28  1  0
  6  7  2  0
  6  8  1  0
  8  9  1  0
  8 26  2  0
  9 10  2  0
  9 49  1  0
 10 11  1  0
 10 50  1  0
 11 12  1  0
 11 27  2  0
 12 13  2  0
 12 30  1  0
 13 14  1  0
 13 51  1  0
 14 15  2  0
 14 52  1  0
 15 16  1  0
 15 38  1  0
 16 17  1  0
 16 30  2  0
 17 18  2  0
 17 31  1  0
 18 19  1  0
 18 53  1  0
 19 20  1  0
 19 21  2  0
 21 22  1  0
 21 30  1  0
 22 23  2  0
 22 27  1  0
 23 24  1  0
 23 54  1  0
 24 25  2  0
 24 55  1  0
 25 26  1  0
 25 28  1  0
 26 27  1  0
 28 29  2  0
 31 32  2  0
 31 33  1  0
 33 34  1  0
 33 38  1  0
 34 35  1  0
 34 56  1  0
 34 57  1  0
 35 36  1  0
 35 58  1  0
 35 59  1  0
 36 37  1  0
 36 60  1  0
 36 61  1  0
 37 62  1  0
 37 63  1  0
 37 64  1  0
 38 39  2  0
M  END

