
     RDKit          3D

100110  0  0  0  0  0  0  0  0999 V2000
    1.1683   -3.0149    0.4986 C   0  0  0  0  0  0  0  0  0  0  0  0
    2.3739   -3.7237   -0.0388 C   0  0  0  0  0  0  0  0  0  0  0  0
    2.3968   -5.1268   -0.1064 C   0  0  0  0  0  0  0  0  0  0  0  0
    3.4947   -5.8431   -0.5889 C   0  0  0  0  0  0  0  0  0  0  0  0
    4.6625   -5.1831   -1.0400 C   0  0  0  0  0  0  0  0  0  0  0  0
    4.6899   -3.8028   -0.9987 C   0  0  0  0  0  0  0  0  0  0  0  0
    5.6972   -2.8154   -1.3729 C   0  0  0  0  0  0  0  0  0  0  0  0
    6.9819   -2.8838   -1.8978 C   0  0  0  0  0  0  0  0  0  0  0  0
    7.6743   -1.6800   -2.1365 C   0  0  0  0  0  0  0  0  0  0  0  0
    7.0926   -0.4339   -1.8554 C   0  0  0  0  0  0  0  0  0  0  0  0
    5.8023   -0.3433   -1.3287 C   0  0  0  0  0  0  0  0  0  0  0  0
    5.1227   -1.5480   -1.0960 C   0  0  0  0  0  0  0  0  0  0  0  0
    3.8420   -1.7249   -0.5849 N   0  0  0  0  0  0  0  0  0  0  0  0
    2.9920   -0.6051   -0.2321 C   0  0  0  0  0  0  0  0  0  0  0  0
    2.0985   -0.0879   -1.1774 C   0  0  0  0  0  0  0  0  0  0  0  0
    1.3256    1.0231   -0.8494 C   0  0  0  0  0  0  0  0  0  0  0  0
    1.4267    1.6605    0.4083 C   0  0  0  0  0  0  0  0  0  0  0  0
    0.6334    2.8803    0.7162 C   0  0  0  0  0  0  0  0  0  0  0  0
    1.2862    4.0615    1.1037 C   0  0  0  0  0  0  0  0  0  0  0  0
    2.7771    4.1211    1.2649 C   0  0  0  0  0  0  0  0  0  0  0  0
    3.3616    4.2595    2.5339 C   0  0  0  0  0  0  0  0  0  0  0  0
    4.7494    4.3430    2.6782 C   0  0  0  0  0  0  0  0  0  0  0  0
    5.5770    4.3007    1.5528 C   0  0  0  0  0  0  0  0  0  0  0  0
    5.0059    4.1802    0.2819 C   0  0  0  0  0  0  0  0  0  0  0  0
    3.6180    4.0913    0.1406 C   0  0  0  0  0  0  0  0  0  0  0  0
    0.5646    5.2694    1.2616 C   0  0  0  0  0  0  0  0  0  0  0  0
    1.2379    6.4668    1.6207 C   0  0  0  0  0  0  0  0  0  0  0  0
    1.7872    7.4526    1.9207 N   0  0  0  0  0  0  0  0  0  0  0  0
   -0.8708    5.2868    1.0152 C   0  0  0  0  0  0  0  0  0  0  0  0
   -1.5997    6.4907    1.1867 C   0  0  0  0  0  0  0  0  0  0  0  0
   -2.1861    7.4914    1.3277 N   0  0  0  0  0  0  0  0  0  0  0  0
   -1.5280    4.0849    0.6354 C   0  0  0  0  0  0  0  0  0  0  0  0
   -3.0156    4.1320    0.4558 C   0  0  0  0  0  0  0  0  0  0  0  0
   -3.8735    3.5134    1.3791 C   0  0  0  0  0  0  0  0  0  0  0  0
   -5.2603    3.5720    1.2176 C   0  0  0  0  0  0  0  0  0  0  0  0
   -5.8133    4.2530    0.1291 C   0  0  0  0  0  0  0  0  0  0  0  0
   -4.9696    4.8833   -0.7899 C   0  0  0  0  0  0  0  0  0  0  0  0
   -3.5834    4.8274   -0.6243 C   0  0  0  0  0  0  0  0  0  0  0  0
   -0.8123    2.8879    0.5017 C   0  0  0  0  0  0  0  0  0  0  0  0
   -1.5209    1.6030    0.2418 C   0  0  0  0  0  0  0  0  0  0  0  0
   -2.3479    1.4105   -0.8841 C   0  0  0  0  0  0  0  0  0  0  0  0
   -3.0088    0.2012   -1.1079 C   0  0  0  0  0  0  0  0  0  0  0  0
   -2.8559   -0.8642   -0.2134 C   0  0  0  0  0  0  0  0  0  0  0  0
   -3.4835   -2.1259   -0.4660 N   0  0  0  0  0  0  0  0  0  0  0  0
   -2.9433   -3.0700   -1.3333 C   0  0  0  0  0  0  0  0  0  0  0  0
   -1.8351   -2.9572   -2.1855 C   0  0  0  0  0  0  0  0  0  0  0  0
   -1.4955   -4.0652   -2.9640 C   0  0  0  0  0  0  0  0  0  0  0  0
   -2.2354   -5.2621   -2.8986 C   0  0  0  0  0  0  0  0  0  0  0  0
   -3.3365   -5.3689   -2.0487 C   0  0  0  0  0  0  0  0  0  0  0  0
   -3.6998   -4.2698   -1.2564 C   0  0  0  0  0  0  0  0  0  0  0  0
   -4.7524   -4.0299   -0.2915 C   0  0  0  0  0  0  0  0  0  0  0  0
   -5.7996   -4.8328    0.1834 C   0  0  0  0  0  0  0  0  0  0  0  0
   -6.6772   -4.2955    1.1179 C   0  0  0  0  0  0  0  0  0  0  0  0
   -6.5165   -2.9707    1.5627 C   0  0  0  0  0  0  0  0  0  0  0  0
   -5.4900   -2.1290    1.1159 C   0  0  0  0  0  0  0  0  0  0  0  0
   -5.4020   -0.7089    1.6193 C   0  0  0  0  0  0  0  0  0  0  0  0
   -4.5942   -2.6937    0.1783 C   0  0  0  0  0  0  0  0  0  0  0  0
   -2.0289   -0.6985    0.9074 C   0  0  0  0  0  0  0  0  0  0  0  0
   -1.3802    0.5146    1.1291 C   0  0  0  0  0  0  0  0  0  0  0  0
    2.3281    1.0972    1.3391 C   0  0  0  0  0  0  0  0  0  0  0  0
    3.1120   -0.0128    1.0274 C   0  0  0  0  0  0  0  0  0  0  0  0
    3.5553   -3.0689   -0.5096 C   0  0  0  0  0  0  0  0  0  0  0  0
    0.6848   -2.4003   -0.2746 H   0  0  0  0  0  0  0  0  0  0  0  0
    1.4310   -2.3285    1.3158 H   0  0  0  0  0  0  0  0  0  0  0  0
    0.4302   -3.7404    0.8630 H   0  0  0  0  0  0  0  0  0  0  0  0
    1.5150   -5.6718    0.2342 H   0  0  0  0  0  0  0  0  0  0  0  0
    3.4515   -6.9335   -0.6167 H   0  0  0  0  0  0  0  0  0  0  0  0
    5.5137   -5.7571   -1.4105 H   0  0  0  0  0  0  0  0  0  0  0  0
    7.4523   -3.8429   -2.1236 H   0  0  0  0  0  0  0  0  0  0  0  0
    8.6847   -1.7188   -2.5482 H   0  0  0  0  0  0  0  0  0  0  0  0
    7.6569    0.4796   -2.0501 H   0  0  0  0  0  0  0  0  0  0  0  0
    5.3395    0.6169   -1.1011 H   0  0  0  0  0  0  0  0  0  0  0  0
    2.0204   -0.5411   -2.1686 H   0  0  0  0  0  0  0  0  0  0  0  0
    0.6424    1.4293   -1.5964 H   0  0  0  0  0  0  0  0  0  0  0  0
    2.7176    4.3140    3.4149 H   0  0  0  0  0  0  0  0  0  0  0  0
    5.1844    4.4561    3.6747 H   0  0  0  0  0  0  0  0  0  0  0  0
    6.6616    4.3798    1.6647 H   0  0  0  0  0  0  0  0  0  0  0  0
    5.6432    4.1769   -0.6071 H   0  0  0  0  0  0  0  0  0  0  0  0
    3.1734    4.0151   -0.8546 H   0  0  0  0  0  0  0  0  0  0  0  0
   -3.4463    2.9865    2.2352 H   0  0  0  0  0  0  0  0  0  0  0  0
   -5.9122    3.0897    1.9509 H   0  0  0  0  0  0  0  0  0  0  0  0
   -6.8982    4.3013    0.0033 H   0  0  0  0  0  0  0  0  0  0  0  0
   -5.3919    5.4299   -1.6372 H   0  0  0  0  0  0  0  0  0  0  0  0
   -2.9290    5.3337   -1.3379 H   0  0  0  0  0  0  0  0  0  0  0  0
   -2.4774    2.2276   -1.5954 H   0  0  0  0  0  0  0  0  0  0  0  0
   -3.6484    0.0763   -1.9847 H   0  0  0  0  0  0  0  0  0  0  0  0
   -1.2732   -2.0236   -2.2507 H   0  0  0  0  0  0  0  0  0  0  0  0
   -0.6448   -3.9973   -3.6479 H   0  0  0  0  0  0  0  0  0  0  0  0
   -1.9488   -6.1091   -3.5269 H   0  0  0  0  0  0  0  0  0  0  0  0
   -3.9125   -6.2969   -2.0037 H   0  0  0  0  0  0  0  0  0  0  0  0
   -5.9226   -5.8562   -0.1798 H   0  0  0  0  0  0  0  0  0  0  0  0
   -7.5039   -4.8956    1.5054 H   0  0  0  0  0  0  0  0  0  0  0  0
   -7.2304   -2.5674    2.2867 H   0  0  0  0  0  0  0  0  0  0  0  0
   -6.2660   -0.4797    2.2599 H   0  0  0  0  0  0  0  0  0  0  0  0
   -5.3861    0.0240    0.7984 H   0  0  0  0  0  0  0  0  0  0  0  0
   -4.4893   -0.5316    2.2091 H   0  0  0  0  0  0  0  0  0  0  0  0
   -1.9149   -1.5248    1.6134 H   0  0  0  0  0  0  0  0  0  0  0  0
   -0.7587    0.6341    2.0191 H   0  0  0  0  0  0  0  0  0  0  0  0
    2.4216    1.5462    2.3279 H   0  0  0  0  0  0  0  0  0  0  0  0
    3.8103   -0.4180    1.7638 H   0  0  0  0  0  0  0  0  0  0  0  0
  1  2  1  0
  1 63  1  0
  1 64  1  0
  1 65  1  0
  2  3  2  0
  2 62  1  0
  3  4  1  0
  3 66  1  0
  4  5  2  0
  4 67  1  0
  5  6  1  0
  5 68  1  0
  6  7  1  0
  6 62  2  0
  7  8  2  0
  7 12  1  0
  8  9  1  0
  8 69  1  0
  9 10  2  0
  9 70  1  0
 10 11  1  0
 10 71  1  0
 11 12  2  0
 11 72  1  0
 12 13  1  0
 13 14  1  0
 13 62  1  0
 14 15  2  0
 14 61  1  0
 15 16  1  0
 15 73  1  0
 16 17  2  0
 16 74  1  0
 17 18  1  0
 17 60  1  0
 18 19  1  0
 18 39  2  0
 19 20  1  0
 19 26  2  0
 20 21  2  0
 20 25  1  0
 21 22  1  0
 21 75  1  0
 22 23  2  0
 22 76  1  0
 23 24  1  0
 23 77  1  0
 24 25  2  0
 24 78  1  0
 25 79  1  0
 26 27  1  0
 26 29  1  0
 27 28  3  0
 29 30  1  0
 29 32  2  0
 30 31  3  0
 32 33  1  0
 32 39  1  0
 33 34  2  0
 33 38  1  0
 34 35  1  0
 34 80  1  0
 35 36  2  0
 35 81  1  0
 36 37  1  0
 36 82  1  0
 37 38  2  0
 37 83  1  0
 38 84  1  0
 39 40  1  0
 40 41  2  0
 40 59  1  0
 41 42  1  0
 41 85  1  0
 42 43  2  0
 42 86  1  0
 43 44  1  0
 43 58  1  0
 44 45  1  0
 44 57  1  0
 45 46  2  0
 45 50  1  0
 46 47  1  0
 46 87  1  0
 47 48  2  0
 47 88  1  0
 48 49  1  0
 48 89  1  0
 49 50  2  0
 49 90  1  0
 50 51  1  0
 51 52  1  0
 51 57  2  0
 52 53  2  0
 52 91  1  0
 53 54  1  0
 53 92  1  0
 54 55  2  0
 54 93  1  0
 55 56  1  0
 55 57  1  0
 56 94  1  0
 56 95  1  0
 56 96  1  0
 58 59  2  0
 58 97  1  0
 59 98  1  0
 60 61  2  0
 60 99  1  0
 61100  1  0
M  END

