
     RDKit          3D

 94101  0  0  0  0  0  0  0  0999 V2000
    3.0708    2.3547    0.6624 C   0  0  0  0  0  0  0  0  0  0  0  0
    2.4169    1.0678    1.1967 C   0  0  1  0  0  0  0  0  0  0  0  0
    1.1824    1.4628    2.0444 C   0  0  0  0  0  0  0  0  0  0  0  0
    1.9608    0.2098   -0.0094 C   0  0  0  0  0  0  0  0  0  0  0  0
    3.3749    0.2418    2.0612 C   0  0  0  0  0  0  0  0  0  0  0  0
    4.7215    0.6079    2.2857 C   0  0  0  0  0  0  0  0  0  0  0  0
    5.5695   -0.1571    3.0669 C   0  0  0  0  0  0  0  0  0  0  0  0
    5.1057   -1.3566    3.6900 C   0  0  0  0  0  0  0  0  0  0  0  0
    5.9184   -2.1440    4.4579 N   0  0  0  0  0  0  0  0  0  0  0  0
    7.1452   -1.6728    4.9964 C   0  0  0  0  0  0  0  0  0  0  0  0
    7.2230   -0.4096    5.6163 C   0  0  0  0  0  0  0  0  0  0  0  0
    8.4263    0.0172    6.1796 C   0  0  0  0  0  0  0  0  0  0  0  0
    9.5567   -0.8031    6.1313 C   0  0  0  0  0  0  0  0  0  0  0  0
    9.4739   -2.0672    5.5296 C   0  0  0  0  0  0  0  0  0  0  0  0
    8.2769   -2.5117    4.9772 C   0  0  0  0  0  0  0  0  0  0  0  0
    5.5309   -3.5133    4.7775 C   0  0  0  0  0  0  0  0  0  0  0  0
    5.0357   -3.7826    6.0586 C   0  0  0  0  0  0  0  0  0  0  0  0
    4.6672   -5.0672    6.4183 C   0  0  0  0  0  0  0  0  0  0  0  0
    4.7965   -6.1432    5.4832 C   0  0  0  0  0  0  0  0  0  0  0  0
    4.4447   -7.4753    5.8163 C   0  0  0  0  0  0  0  0  0  0  0  0
    4.5654   -8.5086    4.9061 C   0  0  0  0  0  0  0  0  0  0  0  0
    5.0499   -8.2834    3.5892 C   0  0  0  0  0  0  0  0  0  0  0  0
    5.1774   -9.3321    2.6186 C   0  0  0  0  0  0  0  0  0  0  0  0
    4.7753  -10.6718    2.9369 N   0  0  0  0  0  0  0  0  0  0  0  0
    3.4035  -10.9743    3.0704 C   0  0  0  0  0  0  0  0  0  0  0  0
    2.4315  -10.1912    2.4148 C   0  0  0  0  0  0  0  0  0  0  0  0
    1.0721  -10.4654    2.5707 C   0  0  0  0  0  0  0  0  0  0  0  0
    0.6401  -11.5243    3.3744 C   0  0  0  0  0  0  0  0  0  0  0  0
    1.5983  -12.3017    4.0345 C   0  0  0  0  0  0  0  0  0  0  0  0
    2.9591  -12.0306    3.8955 C   0  0  0  0  0  0  0  0  0  0  0  0
    5.7744  -11.6724    2.9905 C   0  0  0  0  0  0  0  0  0  0  0  0
    7.0355  -11.3895    3.5423 C   0  0  0  0  0  0  0  0  0  0  0  0
    8.0425  -12.3564    3.5710 C   0  0  0  0  0  0  0  0  0  0  0  0
    7.8487  -13.6500    3.0601 C   0  0  0  0  0  0  0  0  0  0  0  0
    8.9373  -14.7402    3.0791 C   0  0  1  0  0  0  0  0  0  0  0  0
   10.2333  -14.2549    3.7533 C   0  0  0  0  0  0  0  0  0  0  0  0
    8.4243  -15.9731    3.8590 C   0  0  0  0  0  0  0  0  0  0  0  0
    9.2756  -15.1581    1.6291 C   0  0  0  0  0  0  0  0  0  0  0  0
    6.5837  -13.9182    2.5037 C   0  0  0  0  0  0  0  0  0  0  0  0
    5.5719  -12.9618    2.4590 C   0  0  0  0  0  0  0  0  0  0  0  0
    5.7069   -9.0520    1.3533 C   0  0  0  0  0  0  0  0  0  0  0  0
    6.1028   -7.7704    0.9937 C   0  0  0  0  0  0  0  0  0  0  0  0
    5.9689   -6.6866    1.9079 C   0  0  0  0  0  0  0  0  0  0  0  0
    6.3399   -5.3607    1.5780 C   0  0  0  0  0  0  0  0  0  0  0  0
    6.2032   -4.3167    2.4843 C   0  0  0  0  0  0  0  0  0  0  0  0
    5.6903   -4.5374    3.7878 C   0  0  0  0  0  0  0  0  0  0  0  0
    5.3064   -5.8773    4.1664 C   0  0  0  0  0  0  0  0  0  0  0  0
    5.4381   -6.9487    3.2201 C   0  0  0  0  0  0  0  0  0  0  0  0
    3.7556   -1.7523    3.4365 C   0  0  0  0  0  0  0  0  0  0  0  0
    2.9319   -0.9662    2.6593 C   0  0  0  0  0  0  0  0  0  0  0  0
    2.3413    2.9164    0.0596 H   0  0  0  0  0  0  0  0  0  0  0  0
    3.9351    2.1422    0.0142 H   0  0  0  0  0  0  0  0  0  0  0  0
    3.4040    3.0170    1.4769 H   0  0  0  0  0  0  0  0  0  0  0  0
    0.4814    2.0513    1.4318 H   0  0  0  0  0  0  0  0  0  0  0  0
    1.4741    2.0763    2.9114 H   0  0  0  0  0  0  0  0  0  0  0  0
    0.6368    0.5843    2.4198 H   0  0  0  0  0  0  0  0  0  0  0  0
    1.2644    0.7876   -0.6377 H   0  0  0  0  0  0  0  0  0  0  0  0
    1.4423   -0.7077    0.3065 H   0  0  0  0  0  0  0  0  0  0  0  0
    2.8182   -0.0859   -0.6338 H   0  0  0  0  0  0  0  0  0  0  0  0
    5.1278    1.5038    1.8181 H   0  0  0  0  0  0  0  0  0  0  0  0
    6.6133    0.1351    3.1699 H   0  0  0  0  0  0  0  0  0  0  0  0
    6.3309    0.2146    5.6906 H   0  0  0  0  0  0  0  0  0  0  0  0
    8.4734    0.9902    6.6742 H   0  0  0  0  0  0  0  0  0  0  0  0
   10.4973   -0.4672    6.5736 H   0  0  0  0  0  0  0  0  0  0  0  0
   10.3526   -2.7149    5.4941 H   0  0  0  0  0  0  0  0  0  0  0  0
    8.2028   -3.4960    4.5147 H   0  0  0  0  0  0  0  0  0  0  0  0
    4.9442   -2.9638    6.7779 H   0  0  0  0  0  0  0  0  0  0  0  0
    4.2850   -5.2723    7.4202 H   0  0  0  0  0  0  0  0  0  0  0  0
    4.0688   -7.6791    6.8229 H   0  0  0  0  0  0  0  0  0  0  0  0
    4.2877   -9.5218    5.1980 H   0  0  0  0  0  0  0  0  0  0  0  0
    2.7545   -9.3630    1.7830 H   0  0  0  0  0  0  0  0  0  0  0  0
    0.3410   -9.8421    2.0479 H   0  0  0  0  0  0  0  0  0  0  0  0
   -0.4252  -11.7375    3.4905 H   0  0  0  0  0  0  0  0  0  0  0  0
    1.2835  -13.1259    4.6809 H   0  0  0  0  0  0  0  0  0  0  0  0
    3.6892  -12.6350    4.4359 H   0  0  0  0  0  0  0  0  0  0  0  0
    7.2258  -10.3964    3.9526 H   0  0  0  0  0  0  0  0  0  0  0  0
    8.9986  -12.0779    4.0159 H   0  0  0  0  0  0  0  0  0  0  0  0
   10.0637  -13.9600    4.8008 H   0  0  0  0  0  0  0  0  0  0  0  0
   10.6751  -13.3959    3.2244 H   0  0  0  0  0  0  0  0  0  0  0  0
   10.9813  -15.0639    3.7528 H   0  0  0  0  0  0  0  0  0  0  0  0
    8.1808  -15.7073    4.9001 H   0  0  0  0  0  0  0  0  0  0  0  0
    9.1907  -16.7662    3.8794 H   0  0  0  0  0  0  0  0  0  0  0  0
    7.5173  -16.3992    3.4034 H   0  0  0  0  0  0  0  0  0  0  0  0
    9.6575  -14.3008    1.0521 H   0  0  0  0  0  0  0  0  0  0  0  0
    8.3933  -15.5495    1.1000 H   0  0  0  0  0  0  0  0  0  0  0  0
   10.0472  -15.9464    1.6217 H   0  0  0  0  0  0  0  0  0  0  0  0
    6.3757  -14.9017    2.0738 H   0  0  0  0  0  0  0  0  0  0  0  0
    4.6136  -13.2128    2.0010 H   0  0  0  0  0  0  0  0  0  0  0  0
    5.8021   -9.8735    0.6383 H   0  0  0  0  0  0  0  0  0  0  0  0
    6.5109   -7.5791   -0.0017 H   0  0  0  0  0  0  0  0  0  0  0  0
    6.7407   -5.1629    0.5800 H   0  0  0  0  0  0  0  0  0  0  0  0
    6.5072   -3.3126    2.1833 H   0  0  0  0  0  0  0  0  0  0  0  0
    3.3899   -2.6756    3.8807 H   0  0  0  0  0  0  0  0  0  0  0  0
    1.9045   -1.2987    2.5037 H   0  0  0  0  0  0  0  0  0  0  0  0
  2  1  1  6
  1 51  1  0
  1 52  1  0
  1 53  1  0
  2  3  1  0
  2  4  1  0
  2  5  1  0
  3 54  1  0
  3 55  1  0
  3 56  1  0
  4 57  1  0
  4 58  1  0
  4 59  1  0
  5  6  2  0
  5 50  1  0
  6  7  1  0
  6 60  1  0
  7  8  2  0
  7 61  1  0
  8  9  1  0
  8 49  1  0
  9 10  1  0
  9 16  1  0
 10 11  2  0
 10 15  1  0
 11 12  1  0
 11 62  1  0
 12 13  2  0
 12 63  1  0
 13 14  1  0
 13 64  1  0
 14 15  2  0
 14 65  1  0
 15 66  1  0
 16 17  2  0
 16 46  1  0
 17 18  1  0
 17 67  1  0
 18 19  2  0
 18 68  1  0
 19 20  1  0
 19 47  1  0
 20 21  2  0
 20 69  1  0
 21 22  1  0
 21 70  1  0
 22 23  2  0
 22 48  1  0
 23 24  1  0
 23 41  1  0
 24 25  1  0
 24 31  1  0
 25 26  2  0
 25 30  1  0
 26 27  1  0
 26 71  1  0
 27 28  2  0
 27 72  1  0
 28 29  1  0
 28 73  1  0
 29 30  2  0
 29 74  1  0
 30 75  1  0
 31 32  2  0
 31 40  1  0
 32 33  1  0
 32 76  1  0
 33 34  2  0
 33 77  1  0
 34 35  1  0
 34 39  1  0
 35 36  1  1
 35 37  1  0
 35 38  1  0
 36 78  1  0
 36 79  1  0
 36 80  1  0
 37 81  1  0
 37 82  1  0
 37 83  1  0
 38 84  1  0
 38 85  1  0
 38 86  1  0
 39 40  2  0
 39 87  1  0
 40 88  1  0
 41 42  2  0
 41 89  1  0
 42 43  1  0
 42 90  1  0
 43 44  2  0
 43 48  1  0
 44 45  1  0
 44 91  1  0
 45 46  2  0
 45 92  1  0
 46 47  1  0
 47 48  2  0
 49 50  2  0
 49 93  1  0
 50 94  1  0
M  END

