
     RDKit          3D

 43 47  0  0  0  0  0  0  0  0999 V2000
    2.4903   -1.6047    0.5855 C   0  0  0  0  0  0  0  0  0  0  0  0
    2.1001   -0.2481    0.5291 O   0  0  0  0  0  0  0  0  0  0  0  0
    2.8686    0.6904    1.1298 C   0  0  0  0  0  0  0  0  0  0  0  0
    4.0499    0.4191    1.8053 C   0  0  0  0  0  0  0  0  0  0  0  0
    4.7730    1.4489    2.4452 C   0  0  0  0  0  0  0  0  0  0  0  0
    5.9583    1.1501    3.2046 C   0  0  0  0  0  0  0  0  0  0  0  0
    6.5778   -0.4815    3.3868 S   0  0  0  0  0  0  0  0  0  0  0  0
    7.8494    0.0841    4.4480 C   0  0  0  0  0  0  0  0  0  0  0  0
    8.8084   -0.7336    5.0564 C   0  0  0  0  0  0  0  0  0  0  0  0
    9.7373   -0.1498    5.9129 C   0  0  0  0  0  0  0  0  0  0  0  0
    9.6911    1.2316    6.1640 C   0  0  0  0  0  0  0  0  0  0  0  0
    8.7380    2.0410    5.5525 C   0  0  0  0  0  0  0  0  0  0  0  0
    7.7950    1.4897    4.6562 C   0  0  0  0  0  0  0  0  0  0  0  0
    6.7044    2.0995    3.8961 C   0  0  0  0  0  0  0  0  0  0  0  0
    6.3245    3.4889    3.7383 C   0  0  0  0  0  0  0  0  0  0  0  0
    7.0805    4.5855    4.2143 C   0  0  0  0  0  0  0  0  0  0  0  0
    6.7382    5.8512    4.0354 N   0  0  0  0  0  0  0  0  0  0  0  0
    5.6118    6.0596    3.3357 C   0  0  0  0  0  0  0  0  0  0  0  0
    4.8340    5.1364    2.8065 N   0  0  0  0  0  0  0  0  0  0  0  0
    5.1491    3.8369    2.9941 C   0  0  0  0  0  0  0  0  0  0  0  0
    4.3198    2.7992    2.3873 C   0  0  0  0  0  0  0  0  0  0  0  0
    3.0758    3.0559    1.7275 C   0  0  0  0  0  0  0  0  0  0  0  0
    2.4751    4.2672    1.7914 O   0  0  0  0  0  0  0  0  0  0  0  0
    2.5863    5.1349    0.6774 C   0  0  0  0  0  0  0  0  0  0  0  0
    2.3765    2.0255    1.0802 C   0  0  0  0  0  0  0  0  0  0  0  0
    1.1796    2.3312    0.5154 O   0  0  0  0  0  0  0  0  0  0  0  0
    0.9645    2.0355   -0.8585 C   0  0  0  0  0  0  0  0  0  0  0  0
    1.7186   -2.1724    0.0492 H   0  0  0  0  0  0  0  0  0  0  0  0
    2.5464   -1.9683    1.6264 H   0  0  0  0  0  0  0  0  0  0  0  0
    3.4657   -1.7705    0.0948 H   0  0  0  0  0  0  0  0  0  0  0  0
    4.4155   -0.6042    1.8735 H   0  0  0  0  0  0  0  0  0  0  0  0
    8.8203   -1.8094    4.8667 H   0  0  0  0  0  0  0  0  0  0  0  0
   10.4939   -0.7702    6.3990 H   0  0  0  0  0  0  0  0  0  0  0  0
   10.4088    1.6806    6.8547 H   0  0  0  0  0  0  0  0  0  0  0  0
    8.7250    3.1003    5.7995 H   0  0  0  0  0  0  0  0  0  0  0  0
    8.0220    4.4198    4.7397 H   0  0  0  0  0  0  0  0  0  0  0  0
    5.3217    7.1058    3.1761 H   0  0  0  0  0  0  0  0  0  0  0  0
    1.9480    6.0035    0.8910 H   0  0  0  0  0  0  0  0  0  0  0  0
    2.2330    4.6540   -0.2505 H   0  0  0  0  0  0  0  0  0  0  0  0
    3.6256    5.4795    0.5529 H   0  0  0  0  0  0  0  0  0  0  0  0
    0.0405    2.5577   -1.1442 H   0  0  0  0  0  0  0  0  0  0  0  0
    0.8451    0.9568   -1.0354 H   0  0  0  0  0  0  0  0  0  0  0  0
    1.7938    2.4139   -1.4835 H   0  0  0  0  0  0  0  0  0  0  0  0
  1  2  1  0
  1 28  1  0
  1 29  1  0
  1 30  1  0
  2  3  1  0
  3  4  2  0
  3 25  1  0
  4  5  1  0
  4 31  1  0
  5  6  2  0
  5 21  1  0
  6  7  1  0
  6 14  1  0
  7  8  1  0
  8  9  2  0
  8 13  1  0
  9 10  1  0
  9 32  1  0
 10 11  2  0
 10 33  1  0
 11 12  1  0
 11 34  1  0
 12 13  2  0
 12 35  1  0
 13 14  1  0
 14 15  2  0
 15 16  1  0
 15 20  1  0
 16 17  2  0
 16 36  1  0
 17 18  1  0
 18 19  2  0
 18 37  1  0
 19 20  1  0
 20 21  2  0
 21 22  1  0
 22 23  1  0
 22 25  2  0
 23 24  1  0
 24 38  1  0
 24 39  1  0
 24 40  1  0
 25 26  1  0
 26 27  1  0
 27 41  1  0
 27 42  1  0
 27 43  1  0
M  END

