
     RDKit          3D

 57 62  0  0  0  0  0  0  0  0999 V2000
    4.4542   -0.4150    2.1816 O   0  0  0  0  0  0  0  0  0  0  0  0
    4.9150   -0.1972    1.0750 C   0  0  0  0  0  0  0  0  0  0  0  0
    6.3751   -0.4245    0.8081 C   0  0  0  0  0  0  0  0  0  0  0  0
    7.1261   -1.0915    1.7907 C   0  0  0  0  0  0  0  0  0  0  0  0
    8.4708   -1.3909    1.5790 C   0  0  0  0  0  0  0  0  0  0  0  0
    9.0895   -1.0363    0.3740 C   0  0  0  0  0  0  0  0  0  0  0  0
    8.3650   -0.3679   -0.6147 C   0  0  0  0  0  0  0  0  0  0  0  0
    7.0209   -0.0663   -0.3879 C   0  0  0  0  0  0  0  0  0  0  0  0
    6.2086    0.9561   -1.6175 S   0  0  2  0  0  0  0  0  0  0  0  0
    6.5721    0.4726   -2.9562 O   0  0  0  0  0  0  0  0  0  0  0  0
    6.4586    2.3592   -1.2627 O   0  0  0  0  0  0  0  0  0  0  0  0
    4.4799    0.6094   -1.3204 C   0  0  0  0  0  0  0  0  0  0  0  0
    3.5880    0.8912   -2.3561 C   0  0  0  0  0  0  0  0  0  0  0  0
    2.2173    0.7866   -2.1305 C   0  0  0  0  0  0  0  0  0  0  0  0
    1.7074    0.4070   -0.8706 C   0  0  0  0  0  0  0  0  0  0  0  0
    0.2474    0.3068   -0.6295 C   0  0  0  0  0  0  0  0  0  0  0  0
   -0.3087    0.6098    0.6284 C   0  0  0  0  0  0  0  0  0  0  0  0
   -1.6775    0.5196    0.8619 C   0  0  0  0  0  0  0  0  0  0  0  0
   -2.5601    0.1243   -0.1631 C   0  0  0  0  0  0  0  0  0  0  0  0
   -3.9497    0.0356    0.0685 N   0  0  0  0  0  0  0  0  0  0  0  0
   -4.7201   -0.9874   -0.5517 C   0  0  0  0  0  0  0  0  0  0  0  0
   -4.2540   -2.3140   -0.5876 C   0  0  0  0  0  0  0  0  0  0  0  0
   -5.0139   -3.3121   -1.1997 C   0  0  0  0  0  0  0  0  0  0  0  0
   -6.2559   -3.0116   -1.7686 C   0  0  0  0  0  0  0  0  0  0  0  0
   -6.7278   -1.6958   -1.7249 C   0  0  0  0  0  0  0  0  0  0  0  0
   -5.9665   -0.6883   -1.1299 C   0  0  0  0  0  0  0  0  0  0  0  0
   -4.5959    0.9690    0.9274 C   0  0  0  0  0  0  0  0  0  0  0  0
   -5.5238    0.5288    1.8878 C   0  0  0  0  0  0  0  0  0  0  0  0
   -6.1664    1.4474    2.7197 C   0  0  0  0  0  0  0  0  0  0  0  0
   -5.8857    2.8139    2.6202 C   0  0  0  0  0  0  0  0  0  0  0  0
   -4.9589    3.2550    1.6700 C   0  0  0  0  0  0  0  0  0  0  0  0
   -4.3243    2.3449    0.8232 C   0  0  0  0  0  0  0  0  0  0  0  0
   -2.0127   -0.1798   -1.4253 C   0  0  0  0  0  0  0  0  0  0  0  0
   -0.6413   -0.0919   -1.6463 C   0  0  0  0  0  0  0  0  0  0  0  0
    2.6319    0.1186    0.1477 C   0  0  0  0  0  0  0  0  0  0  0  0
    4.0153    0.2129   -0.0545 C   0  0  0  0  0  0  0  0  0  0  0  0
    6.6179   -1.3710    2.7153 H   0  0  0  0  0  0  0  0  0  0  0  0
    9.0402   -1.9110    2.3529 H   0  0  0  0  0  0  0  0  0  0  0  0
   10.1402   -1.2822    0.2024 H   0  0  0  0  0  0  0  0  0  0  0  0
    8.8274   -0.0850   -1.5627 H   0  0  0  0  0  0  0  0  0  0  0  0
    3.9732    1.1931   -3.3322 H   0  0  0  0  0  0  0  0  0  0  0  0
    1.5284    1.0274   -2.9427 H   0  0  0  0  0  0  0  0  0  0  0  0
    0.3406    0.9360    1.4440 H   0  0  0  0  0  0  0  0  0  0  0  0
   -2.0730    0.7609    1.8497 H   0  0  0  0  0  0  0  0  0  0  0  0
   -3.2927   -2.5586   -0.1315 H   0  0  0  0  0  0  0  0  0  0  0  0
   -4.6366   -4.3379   -1.2181 H   0  0  0  0  0  0  0  0  0  0  0  0
   -6.8515   -3.7965   -2.2406 H   0  0  0  0  0  0  0  0  0  0  0  0
   -7.6946   -1.4456   -2.1694 H   0  0  0  0  0  0  0  0  0  0  0  0
   -6.3343    0.3394   -1.1088 H   0  0  0  0  0  0  0  0  0  0  0  0
   -5.7378   -0.5380    1.9772 H   0  0  0  0  0  0  0  0  0  0  0  0
   -6.8847    1.0885    3.4614 H   0  0  0  0  0  0  0  0  0  0  0  0
   -6.3857    3.5294    3.2772 H   0  0  0  0  0  0  0  0  0  0  0  0
   -4.7360    4.3210    1.5756 H   0  0  0  0  0  0  0  0  0  0  0  0
   -3.6128    2.6965    0.0735 H   0  0  0  0  0  0  0  0  0  0  0  0
   -2.6713   -0.4918   -2.2372 H   0  0  0  0  0  0  0  0  0  0  0  0
   -0.2544   -0.3545   -2.6336 H   0  0  0  0  0  0  0  0  0  0  0  0
    2.2976   -0.2184    1.1298 H   0  0  0  0  0  0  0  0  0  0  0  0
  1  2  2  0
  2  3  1  0
  2 36  1  0
  3  4  1  0
  3  8  2  0
  4  5  2  0
  4 37  1  0
  5  6  1  0
  5 38  1  0
  6  7  2  0
  6 39  1  0
  7  8  1  0
  7 40  1  0
  9  8  1  1
  9 10  2  0
  9 11  2  0
  9 12  1  0
 12 13  1  0
 12 36  2  0
 13 14  2  0
 13 41  1  0
 14 15  1  0
 14 42  1  0
 15 16  1  0
 15 35  2  0
 16 17  2  0
 16 34  1  0
 17 18  1  0
 17 43  1  0
 18 19  2  0
 18 44  1  0
 19 20  1  0
 19 33  1  0
 20 21  1  0
 20 27  1  0
 21 22  2  0
 21 26  1  0
 22 23  1  0
 22 45  1  0
 23 24  2  0
 23 46  1  0
 24 25  1  0
 24 47  1  0
 25 26  2  0
 25 48  1  0
 26 49  1  0
 27 28  2  0
 27 32  1  0
 28 29  1  0
 28 50  1  0
 29 30  2  0
 29 51  1  0
 30 31  1  0
 30 52  1  0
 31 32  2  0
 31 53  1  0
 32 54  1  0
 33 34  2  0
 33 55  1  0
 34 56  1  0
 35 36  1  0
 35 57  1  0
M  END

