
     RDKit          3D

 37 38  0  0  0  0  0  0  0  0999 V2000
    1.0386   -0.3454   -0.4241 C   0  0  0  0  0  0  0  0  0  0  0  0
    2.4945   -0.3327    0.0136 C   0  0  0  0  0  0  0  0  0  0  0  0
    2.8105   -0.8224    1.3390 N   0  0  0  0  0  0  0  0  0  0  0  0
    1.7924   -1.0568    2.3436 C   0  0  0  0  0  0  0  0  0  0  0  0
    1.4844    0.2062    3.1760 C   0  0  0  0  0  0  0  0  0  0  0  0
    4.2123   -0.9287    1.6984 C   0  0  0  0  0  0  0  0  0  0  0  0
    4.8585    0.2339    2.1931 C   0  0  0  0  0  0  0  0  0  0  0  0
    6.1987    0.1770    2.5472 C   0  0  0  0  0  0  0  0  0  0  0  0
    6.7625    1.3132    3.0078 O   0  0  0  0  0  0  0  0  0  0  0  0
    8.1475    1.3900    3.4067 C   0  0  0  0  0  0  0  0  0  0  0  0
    8.5077    2.4796    3.7957 O   0  0  0  0  0  0  0  0  0  0  0  0
    8.8734    0.1753    3.2820 C   0  0  0  0  0  0  0  0  0  0  0  0
    8.3152   -1.0244    2.8052 C   0  0  0  0  0  0  0  0  0  0  0  0
    9.1481   -2.2718    2.6976 C   0  0  0  0  0  0  0  0  0  0  0  0
    6.9447   -1.0391    2.4214 C   0  0  0  0  0  0  0  0  0  0  0  0
    6.2423   -2.1743    1.9124 C   0  0  0  0  0  0  0  0  0  0  0  0
    4.8940   -2.1463    1.5446 C   0  0  0  0  0  0  0  0  0  0  0  0
    4.2232   -3.3853    0.9909 C   0  0  0  0  0  0  0  0  0  0  0  0
    0.9809    0.0532   -1.4474 H   0  0  0  0  0  0  0  0  0  0  0  0
    0.3997    0.2861    0.2105 H   0  0  0  0  0  0  0  0  0  0  0  0
    0.6221   -1.3640   -0.4435 H   0  0  0  0  0  0  0  0  0  0  0  0
    2.9200    0.6913   -0.0266 H   0  0  0  0  0  0  0  0  0  0  0  0
    3.1384   -0.9048   -0.6760 H   0  0  0  0  0  0  0  0  0  0  0  0
    2.1805   -1.8419    3.0048 H   0  0  0  0  0  0  0  0  0  0  0  0
    0.8765   -1.4158    1.8538 H   0  0  0  0  0  0  0  0  0  0  0  0
    2.3778    0.5482    3.7129 H   0  0  0  0  0  0  0  0  0  0  0  0
    0.7075   -0.0509    3.9098 H   0  0  0  0  0  0  0  0  0  0  0  0
    1.1081    1.0253    2.5457 H   0  0  0  0  0  0  0  0  0  0  0  0
    4.3391    1.1871    2.3004 H   0  0  0  0  0  0  0  0  0  0  0  0
    9.9201    0.2241    3.5841 H   0  0  0  0  0  0  0  0  0  0  0  0
   10.1776   -2.0882    3.0381 H   0  0  0  0  0  0  0  0  0  0  0  0
    9.2040   -2.6480    1.6589 H   0  0  0  0  0  0  0  0  0  0  0  0
    8.7392   -3.0998    3.3065 H   0  0  0  0  0  0  0  0  0  0  0  0
    6.7819   -3.1163    1.8012 H   0  0  0  0  0  0  0  0  0  0  0  0
    4.8878   -4.2552    1.0811 H   0  0  0  0  0  0  0  0  0  0  0  0
    3.9707   -3.2875   -0.0807 H   0  0  0  0  0  0  0  0  0  0  0  0
    3.2884   -3.6412    1.5200 H   0  0  0  0  0  0  0  0  0  0  0  0
  1  2  1  0
  1 19  1  0
  1 20  1  0
  1 21  1  0
  2  3  1  0
  2 22  1  0
  2 23  1  0
  3  4  1  0
  3  6  1  0
  4  5  1  0
  4 24  1  0
  4 25  1  0
  5 26  1  0
  5 27  1  0
  5 28  1  0
  6  7  2  0
  6 17  1  0
  7  8  1  0
  7 29  1  0
  8  9  1  0
  8 15  2  0
  9 10  1  0
 10 11  2  0
 10 12  1  0
 12 13  2  0
 12 30  1  0
 13 14  1  0
 13 15  1  0
 14 31  1  0
 14 32  1  0
 14 33  1  0
 15 16  1  0
 16 17  2  0
 16 34  1  0
 17 18  1  0
 18 35  1  0
 18 36  1  0
 18 37  1  0
M  END

