
     RDKit          3D

 57 62  0  0  0  0  0  0  0  0999 V2000
    1.0027    0.7597   -0.2044 C   0  0  0  0  0  0  0  0  0  0  0  0
    2.4388    0.1615   -0.1953 C   0  0  1  0  0  0  0  0  0  0  0  0
    2.8246   -0.2928   -1.6329 C   0  0  0  0  0  0  0  0  0  0  0  0
    3.4198    1.2342    0.2619 C   0  0  0  0  0  0  0  0  0  0  0  0
    3.5326    2.4294   -0.4549 C   0  0  0  0  0  0  0  0  0  0  0  0
    4.4178    3.4397   -0.0751 C   0  0  0  0  0  0  0  0  0  0  0  0
    5.2289    3.2683    1.0577 C   0  0  0  0  0  0  0  0  0  0  0  0
    5.1493    2.1010    1.7927 C   0  0  0  0  0  0  0  0  0  0  0  0
    4.2478    1.0673    1.4112 C   0  0  0  0  0  0  0  0  0  0  0  0
    4.1948   -0.0892    2.1744 N   0  0  0  0  0  0  0  0  0  0  0  0
    5.0642   -0.2149    3.3398 C   0  0  0  0  0  0  0  0  0  0  0  0
    4.6152    0.2301    4.6087 C   0  0  0  0  0  0  0  0  0  0  0  0
    5.4338    0.1125    5.7120 C   0  0  0  0  0  0  0  0  0  0  0  0
    6.7495   -0.4570    5.6066 C   0  0  0  0  0  0  0  0  0  0  0  0
    7.5777   -0.5699    6.7492 C   0  0  0  0  0  0  0  0  0  0  0  0
    7.3226   -0.2133    8.0084 N   0  0  0  0  0  0  0  0  0  0  0  0
    8.4186   -0.5193    8.7334 N   0  0  0  0  0  0  0  0  0  0  0  0
    9.3137   -1.0492    7.9274 C   0  0  0  0  0  0  0  0  0  0  0  0
   10.6340   -1.5163    8.2992 C   0  0  0  0  0  0  0  0  0  0  0  0
   11.0215   -1.4123    9.6571 C   0  0  0  0  0  0  0  0  0  0  0  0
   12.2697   -1.8324   10.1031 C   0  0  0  0  0  0  0  0  0  0  0  0
   13.1863   -2.3785    9.1961 C   0  0  0  0  0  0  0  0  0  0  0  0
   12.8287   -2.4928    7.8501 C   0  0  0  0  0  0  0  0  0  0  0  0
   11.5746   -2.0726    7.3907 C   0  0  0  0  0  0  0  0  0  0  0  0
   11.2405   -2.1895    6.0747 O   0  0  0  0  0  0  0  0  0  0  0  0
    8.8408   -1.1117    6.6427 O   0  0  0  0  0  0  0  0  0  0  0  0
    7.1778   -0.8981    4.3079 C   0  0  0  0  0  0  0  0  0  0  0  0
    6.3534   -0.7793    3.2053 C   0  0  0  0  0  0  0  0  0  0  0  0
    3.3303   -1.1261    1.8591 C   0  0  0  0  0  0  0  0  0  0  0  0
    3.3152   -2.2833    2.6881 C   0  0  0  0  0  0  0  0  0  0  0  0
    2.4676   -3.3373    2.4059 C   0  0  0  0  0  0  0  0  0  0  0  0
    1.6139   -3.2709    1.2937 C   0  0  0  0  0  0  0  0  0  0  0  0
    1.6241   -2.1391    0.4768 C   0  0  0  0  0  0  0  0  0  0  0  0
    2.4648   -1.0504    0.7279 C   0  0  0  0  0  0  0  0  0  0  0  0
    0.9428    1.6258   -0.8789 H   0  0  0  0  0  0  0  0  0  0  0  0
    0.7072    1.0885    0.8029 H   0  0  0  0  0  0  0  0  0  0  0  0
    0.2705    0.0163   -0.5510 H   0  0  0  0  0  0  0  0  0  0  0  0
    2.7998    0.5559   -2.3315 H   0  0  0  0  0  0  0  0  0  0  0  0
    2.1226   -1.0531   -2.0042 H   0  0  0  0  0  0  0  0  0  0  0  0
    3.8371   -0.7226   -1.6512 H   0  0  0  0  0  0  0  0  0  0  0  0
    2.9121    2.5825   -1.3391 H   0  0  0  0  0  0  0  0  0  0  0  0
    4.4757    4.3592   -0.6613 H   0  0  0  0  0  0  0  0  0  0  0  0
    5.9239    4.0525    1.3633 H   0  0  0  0  0  0  0  0  0  0  0  0
    5.7700    1.9513    2.6721 H   0  0  0  0  0  0  0  0  0  0  0  0
    3.6183    0.6671    4.7125 H   0  0  0  0  0  0  0  0  0  0  0  0
    5.0956    0.4524    6.6920 H   0  0  0  0  0  0  0  0  0  0  0  0
   10.2943   -0.9838   10.3486 H   0  0  0  0  0  0  0  0  0  0  0  0
   12.5300   -1.7348   11.1599 H   0  0  0  0  0  0  0  0  0  0  0  0
   14.1716   -2.7142    9.5279 H   0  0  0  0  0  0  0  0  0  0  0  0
   13.5348   -2.9182    7.1279 H   0  0  0  0  0  0  0  0  0  0  0  0
   11.9889   -2.5820    5.6073 H   0  0  0  0  0  0  0  0  0  0  0  0
    8.1731   -1.3326    4.2021 H   0  0  0  0  0  0  0  0  0  0  0  0
    6.7000   -1.1225    2.2265 H   0  0  0  0  0  0  0  0  0  0  0  0
    3.9824   -2.3179    3.5453 H   0  0  0  0  0  0  0  0  0  0  0  0
    2.4667   -4.2175    3.0515 H   0  0  0  0  0  0  0  0  0  0  0  0
    0.9413   -4.1000    1.0636 H   0  0  0  0  0  0  0  0  0  0  0  0
    0.9523   -2.1097   -0.3824 H   0  0  0  0  0  0  0  0  0  0  0  0
  2  1  1  6
  1 35  1  0
  1 36  1  0
  1 37  1  0
  2  3  1  0
  2  4  1  0
  2 34  1  0
  3 38  1  0
  3 39  1  0
  3 40  1  0
  4  5  1  0
  4  9  2  0
  5  6  2  0
  5 41  1  0
  6  7  1  0
  6 42  1  0
  7  8  2  0
  7 43  1  0
  8  9  1  0
  8 44  1  0
  9 10  1  0
 10 11  1  0
 10 29  1  0
 11 12  2  0
 11 28  1  0
 12 13  1  0
 12 45  1  0
 13 14  2  0
 13 46  1  0
 14 15  1  0
 14 27  1  0
 15 16  2  0
 15 26  1  0
 16 17  1  0
 17 18  2  0
 18 19  1  0
 18 26  1  0
 19 20  2  0
 19 24  1  0
 20 21  1  0
 20 47  1  0
 21 22  2  0
 21 48  1  0
 22 23  1  0
 22 49  1  0
 23 24  2  0
 23 50  1  0
 24 25  1  0
 25 51  1  0
 27 28  2  0
 27 52  1  0
 28 53  1  0
 29 30  1  0
 29 34  2  0
 30 31  2  0
 30 54  1  0
 31 32  1  0
 31 55  1  0
 32 33  2  0
 32 56  1  0
 33 34  1  0
 33 57  1  0
M  END

