
     RDKit          3D

 96106  0  0  0  0  0  0  0  0999 V2000
    2.9762   -2.5958    0.8796 C   0  0  0  0  0  0  0  0  0  0  0  0
    3.7765   -1.3720    0.5079 C   0  0  0  0  0  0  0  0  0  0  0  0
    5.1715   -1.4187    0.5654 C   0  0  0  0  0  0  0  0  0  0  0  0
    5.9272   -0.2974    0.1891 C   0  0  0  0  0  0  0  0  0  0  0  0
    7.3471   -0.3528    0.2409 N   0  0  0  0  0  0  0  0  0  0  0  0
    8.1036   -0.7643    1.3367 C   0  0  0  0  0  0  0  0  0  0  0  0
    7.6664   -1.1499    2.6137 C   0  0  0  0  0  0  0  0  0  0  0  0
    8.6421   -1.4939    3.5516 C   0  0  0  0  0  0  0  0  0  0  0  0
   10.0070   -1.4352    3.2317 C   0  0  0  0  0  0  0  0  0  0  0  0
   10.4399   -1.0167    1.9595 C   0  0  0  0  0  0  0  0  0  0  0  0
    9.4856   -0.6776    1.0083 C   0  0  0  0  0  0  0  0  0  0  0  0
    9.5546   -0.1839   -0.3641 C   0  0  0  0  0  0  0  0  0  0  0  0
   10.5987    0.0835   -1.2409 C   0  0  0  0  0  0  0  0  0  0  0  0
   10.2926    0.5261   -2.5415 C   0  0  0  0  0  0  0  0  0  0  0  0
    8.9629    0.6791   -2.9627 C   0  0  0  0  0  0  0  0  0  0  0  0
    7.8982    0.4091   -2.1004 C   0  0  0  0  0  0  0  0  0  0  0  0
    8.2105   -0.0004   -0.7946 C   0  0  0  0  0  0  0  0  0  0  0  0
    5.2914    0.8792   -0.2370 C   0  0  0  0  0  0  0  0  0  0  0  0
    3.8965    0.9444   -0.2775 C   0  0  0  0  0  0  0  0  0  0  0  0
    3.2249    2.2263   -0.7039 C   0  0  0  0  0  0  0  0  0  0  0  0
    3.1108   -0.1843    0.0909 C   0  0  0  0  0  0  0  0  0  0  0  0
    1.5016   -0.1184    0.0398 B   0  0  0  0  0  0  0  0  0  0  0  0
    0.7186    0.3545    1.2757 C   0  0  0  0  0  0  0  0  0  0  0  0
    1.3634    0.7445    2.4829 C   0  0  0  0  0  0  0  0  0  0  0  0
    0.6588    1.1717    3.5996 C   0  0  0  0  0  0  0  0  0  0  0  0
   -0.7501    1.2270    3.5535 C   0  0  0  0  0  0  0  0  0  0  0  0
   -1.4128    0.8536    2.3908 C   0  0  0  0  0  0  0  0  0  0  0  0
   -0.7268    0.4124    1.2293 C   0  0  0  0  0  0  0  0  0  0  0  0
   -1.4946    0.0040   -0.0521 B   0  0  0  0  0  0  0  0  0  0  0  0
   -3.0930    0.0678   -0.1009 C   0  0  0  0  0  0  0  0  0  0  0  0
   -3.7614    1.2451   -0.5208 C   0  0  0  0  0  0  0  0  0  0  0  0
   -2.9689    2.4673   -0.9300 C   0  0  0  0  0  0  0  0  0  0  0  0
   -5.1623    1.2887   -0.5703 C   0  0  0  0  0  0  0  0  0  0  0  0
   -5.9237    0.1796   -0.1915 C   0  0  0  0  0  0  0  0  0  0  0  0
   -7.3513    0.2353   -0.2385 N   0  0  0  0  0  0  0  0  0  0  0  0
   -8.1603    1.0649    0.5344 C   0  0  0  0  0  0  0  0  0  0  0  0
   -7.7966    1.9955    1.5174 C   0  0  0  0  0  0  0  0  0  0  0  0
   -8.8169    2.6962    2.1605 C   0  0  0  0  0  0  0  0  0  0  0  0
  -10.1720    2.4806    1.8409 C   0  0  0  0  0  0  0  0  0  0  0  0
  -10.5307    1.5490    0.8676 C   0  0  0  0  0  0  0  0  0  0  0  0
   -9.5251    0.8291    0.2051 C   0  0  0  0  0  0  0  0  0  0  0  0
   -9.5311   -0.1956   -0.8197 C   0  0  0  0  0  0  0  0  0  0  0  0
  -10.5439   -0.8403   -1.5456 C   0  0  0  0  0  0  0  0  0  0  0  0
  -10.1951   -1.7992   -2.4958 C   0  0  0  0  0  0  0  0  0  0  0  0
   -8.8425   -2.1162   -2.7298 C   0  0  0  0  0  0  0  0  0  0  0  0
   -7.8152   -1.4916   -2.0225 C   0  0  0  0  0  0  0  0  0  0  0  0
   -8.1697   -0.5334   -1.0628 C   0  0  0  0  0  0  0  0  0  0  0  0
   -5.2777   -0.9847    0.2332 C   0  0  0  0  0  0  0  0  0  0  0  0
   -3.8774   -1.0518    0.2739 C   0  0  0  0  0  0  0  0  0  0  0  0
   -3.2116   -2.3297    0.7349 C   0  0  0  0  0  0  0  0  0  0  0  0
   -0.6858   -0.4672   -1.2860 C   0  0  0  0  0  0  0  0  0  0  0  0
   -1.3323   -0.8524   -2.4893 C   0  0  0  0  0  0  0  0  0  0  0  0
   -0.6316   -1.2811   -3.6099 C   0  0  0  0  0  0  0  0  0  0  0  0
    0.7772   -1.3427   -3.5683 C   0  0  0  0  0  0  0  0  0  0  0  0
    1.4438   -0.9728   -2.4087 C   0  0  0  0  0  0  0  0  0  0  0  0
    0.7596   -0.5286   -1.2427 C   0  0  0  0  0  0  0  0  0  0  0  0
    2.2722   -2.3648    1.6938 H   0  0  0  0  0  0  0  0  0  0  0  0
    3.6224   -3.4277    1.1973 H   0  0  0  0  0  0  0  0  0  0  0  0
    2.3635   -2.9323    0.0292 H   0  0  0  0  0  0  0  0  0  0  0  0
    5.6777   -2.3429    0.8523 H   0  0  0  0  0  0  0  0  0  0  0  0
    6.6070   -1.1687    2.8667 H   0  0  0  0  0  0  0  0  0  0  0  0
    8.3352   -1.8032    4.5523 H   0  0  0  0  0  0  0  0  0  0  0  0
   10.7476   -1.7058    3.9868 H   0  0  0  0  0  0  0  0  0  0  0  0
   11.5063   -0.9541    1.7338 H   0  0  0  0  0  0  0  0  0  0  0  0
   11.6383   -0.0532   -0.9365 H   0  0  0  0  0  0  0  0  0  0  0  0
   11.1049    0.7408   -3.2388 H   0  0  0  0  0  0  0  0  0  0  0  0
    8.7541    1.0044   -3.9833 H   0  0  0  0  0  0  0  0  0  0  0  0
    6.8647    0.5012   -2.4319 H   0  0  0  0  0  0  0  0  0  0  0  0
    5.8887    1.7592   -0.4851 H   0  0  0  0  0  0  0  0  0  0  0  0
    2.5809    2.0523   -1.5798 H   0  0  0  0  0  0  0  0  0  0  0  0
    3.9566    3.0087   -0.9549 H   0  0  0  0  0  0  0  0  0  0  0  0
    2.5658    2.6038    0.0926 H   0  0  0  0  0  0  0  0  0  0  0  0
    2.4566    0.7096    2.5398 H   0  0  0  0  0  0  0  0  0  0  0  0
    1.1897    1.4646    4.5103 H   0  0  0  0  0  0  0  0  0  0  0  0
   -1.3151    1.5621    4.4281 H   0  0  0  0  0  0  0  0  0  0  0  0
   -2.5060    0.9004    2.3664 H   0  0  0  0  0  0  0  0  0  0  0  0
   -3.6273    3.2889   -1.2509 H   0  0  0  0  0  0  0  0  0  0  0  0
   -2.3453    2.8333   -0.0978 H   0  0  0  0  0  0  0  0  0  0  0  0
   -2.2791    2.2365   -1.7579 H   0  0  0  0  0  0  0  0  0  0  0  0
   -5.6718    2.1930   -0.9125 H   0  0  0  0  0  0  0  0  0  0  0  0
   -6.7484    2.1640    1.7695 H   0  0  0  0  0  0  0  0  0  0  0  0
   -8.5568    3.4276    2.9305 H   0  0  0  0  0  0  0  0  0  0  0  0
  -10.9463    3.0479    2.3633 H   0  0  0  0  0  0  0  0  0  0  0  0
  -11.5830    1.3792    0.6244 H   0  0  0  0  0  0  0  0  0  0  0  0
  -11.5937   -0.5914   -1.3693 H   0  0  0  0  0  0  0  0  0  0  0  0
  -10.9753   -2.3087   -3.0669 H   0  0  0  0  0  0  0  0  0  0  0  0
   -8.5897   -2.8673   -3.4830 H   0  0  0  0  0  0  0  0  0  0  0  0
   -6.7688   -1.7389   -2.2081 H   0  0  0  0  0  0  0  0  0  0  0  0
   -5.8778   -1.8453    0.5397 H   0  0  0  0  0  0  0  0  0  0  0  0
   -2.5903   -2.1550    1.6286 H   0  0  0  0  0  0  0  0  0  0  0  0
   -2.5372   -2.7290   -0.0401 H   0  0  0  0  0  0  0  0  0  0  0  0
   -3.9514   -3.1070    0.9795 H   0  0  0  0  0  0  0  0  0  0  0  0
   -2.4250   -0.8093   -2.5330 H   0  0  0  0  0  0  0  0  0  0  0  0
   -1.1669   -1.5699   -4.5191 H   0  0  0  0  0  0  0  0  0  0  0  0
    1.3376   -1.6802   -4.4452 H   0  0  0  0  0  0  0  0  0  0  0  0
    2.5377   -1.0278   -2.3973 H   0  0  0  0  0  0  0  0  0  0  0  0
  1  2  1  0
  1 57  1  0
  1 58  1  0
  1 59  1  0
  2  3  2  0
  2 21  1  0
  3  4  1  0
  3 60  1  0
  4  5  1  0
  4 18  2  0
  5  6  1  0
  5 17  1  0
  6  7  2  0
  6 11  1  0
  7  8  1  0
  7 61  1  0
  8  9  2  0
  8 62  1  0
  9 10  1  0
  9 63  1  0
 10 11  2  0
 10 64  1  0
 11 12  1  0
 12 13  1  0
 12 17  2  0
 13 14  2  0
 13 65  1  0
 14 15  1  0
 14 66  1  0
 15 16  2  0
 15 67  1  0
 16 17  1  0
 16 68  1  0
 18 19  1  0
 18 69  1  0
 19 20  1  0
 19 21  2  0
 20 70  1  0
 20 71  1  0
 20 72  1  0
 21 22  1  0
 22 23  1  0
 22 56  1  0
 23 24  2  0
 23 28  1  0
 24 25  1  0
 24 73  1  0
 25 26  2  0
 25 74  1  0
 26 27  1  0
 26 75  1  0
 27 28  2  0
 27 76  1  0
 28 29  1  0
 29 30  1  0
 29 51  1  0
 30 31  2  0
 30 49  1  0
 31 32  1  0
 31 33  1  0
 32 77  1  0
 32 78  1  0
 32 79  1  0
 33 34  2  0
 33 80  1  0
 34 35  1  0
 34 48  1  0
 35 36  1  0
 35 47  1  0
 36 37  2  0
 36 41  1  0
 37 38  1  0
 37 81  1  0
 38 39  2  0
 38 82  1  0
 39 40  1  0
 39 83  1  0
 40 41  2  0
 40 84  1  0
 41 42  1  0
 42 43  1  0
 42 47  2  0
 43 44  2  0
 43 85  1  0
 44 45  1  0
 44 86  1  0
 45 46  2  0
 45 87  1  0
 46 47  1  0
 46 88  1  0
 48 49  2  0
 48 89  1  0
 49 50  1  0
 50 90  1  0
 50 91  1  0
 50 92  1  0
 51 52  1  0
 51 56  2  0
 52 53  2  0
 52 93  1  0
 53 54  1  0
 53 94  1  0
 54 55  2  0
 54 95  1  0
 55 56  1  0
 55 96  1  0
M  END

