
     RDKit          3D

 73 79  0  0  0  0  0  0  0  0999 V2000
    8.7535   -1.0177   -2.3599 C   0  0  0  0  0  0  0  0  0  0  0  0
    8.4979   -0.3277   -0.9998 C   0  0  2  0  0  0  0  0  0  0  0  0
    9.1338    1.0736   -1.0441 C   0  0  0  0  0  0  0  0  0  0  0  0
    9.1873   -1.1349    0.1247 C   0  0  0  0  0  0  0  0  0  0  0  0
    6.9812   -0.2715   -0.7325 C   0  0  0  0  0  0  0  0  0  0  0  0
    6.2363   -1.4636   -0.6527 C   0  0  0  0  0  0  0  0  0  0  0  0
    4.8632   -1.4569   -0.4164 C   0  0  0  0  0  0  0  0  0  0  0  0
    4.1910   -0.2444   -0.2455 C   0  0  0  0  0  0  0  0  0  0  0  0
    2.7678   -0.2285    0.0034 N   0  0  0  0  0  0  0  0  0  0  0  0
    2.3294   -0.6198    1.2879 C   0  0  0  0  0  0  0  0  0  0  0  0
    3.1229   -0.9618    2.1401 O   0  0  0  0  0  0  0  0  0  0  0  0
    0.8595   -0.5905    1.5270 C   0  0  0  0  0  0  0  0  0  0  0  0
    0.3700   -0.9614    2.7694 C   0  0  0  0  0  0  0  0  0  0  0  0
   -1.0188   -0.9410    3.0229 C   0  0  0  0  0  0  0  0  0  0  0  0
   -1.9081   -0.5511    2.0394 C   0  0  0  0  0  0  0  0  0  0  0  0
   -1.4428   -0.1634    0.7533 C   0  0  0  0  0  0  0  0  0  0  0  0
   -2.3179    0.2528   -0.2998 C   0  0  0  0  0  0  0  0  0  0  0  0
   -3.7319    0.2959   -0.0797 N   0  0  0  0  0  0  0  0  0  0  0  0
   -4.5104   -0.8367   -0.3880 C   0  0  0  0  0  0  0  0  0  0  0  0
   -3.8851   -2.0111   -0.8611 C   0  0  0  0  0  0  0  0  0  0  0  0
   -4.6279   -3.1456   -1.1738 C   0  0  0  0  0  0  0  0  0  0  0  0
   -6.0152   -3.1358   -1.0218 C   0  0  0  0  0  0  0  0  0  0  0  0
   -6.6308   -1.9762   -0.5524 C   0  0  0  0  0  0  0  0  0  0  0  0
   -5.9140   -0.8144   -0.2254 C   0  0  0  0  0  0  0  0  0  0  0  0
   -6.6725    0.4209    0.2801 C   0  0  1  0  0  0  0  0  0  0  0  0
   -7.6667    0.8867   -0.8172 C   0  0  0  0  0  0  0  0  0  0  0  0
   -7.4615    0.0425    1.5619 C   0  0  0  0  0  0  0  0  0  0  0  0
   -5.7112    1.5737    0.6025 C   0  0  0  0  0  0  0  0  0  0  0  0
   -6.2265    2.7812    1.0996 C   0  0  0  0  0  0  0  0  0  0  0  0
   -5.4203    3.8770    1.4052 C   0  0  0  0  0  0  0  0  0  0  0  0
   -4.0425    3.7730    1.2086 C   0  0  0  0  0  0  0  0  0  0  0  0
   -3.4966    2.5911    0.7171 C   0  0  0  0  0  0  0  0  0  0  0  0
   -4.3143    1.4815    0.4096 C   0  0  0  0  0  0  0  0  0  0  0  0
   -1.7996    0.6168   -1.5320 C   0  0  0  0  0  0  0  0  0  0  0  0
   -0.4105    0.5883   -1.7723 C   0  0  0  0  0  0  0  0  0  0  0  0
    0.4653    0.1945   -0.7736 C   0  0  0  0  0  0  0  0  0  0  0  0
   -0.0343   -0.1866    0.4994 C   0  0  0  0  0  0  0  0  0  0  0  0
    1.9287    0.1810   -1.0541 C   0  0  0  0  0  0  0  0  0  0  0  0
    2.3877    0.4978   -2.1321 O   0  0  0  0  0  0  0  0  0  0  0  0
    4.9046    0.9499   -0.3167 C   0  0  0  0  0  0  0  0  0  0  0  0
    6.2808    0.9326   -0.5601 C   0  0  0  0  0  0  0  0  0  0  0  0
    8.2799   -0.4580   -3.1821 H   0  0  0  0  0  0  0  0  0  0  0  0
    9.8353   -1.0746   -2.5644 H   0  0  0  0  0  0  0  0  0  0  0  0
    8.3562   -2.0440   -2.3815 H   0  0  0  0  0  0  0  0  0  0  0  0
    9.0119    1.6115   -0.0908 H   0  0  0  0  0  0  0  0  0  0  0  0
    8.7045    1.6950   -1.8456 H   0  0  0  0  0  0  0  0  0  0  0  0
   10.2146    0.9864   -1.2373 H   0  0  0  0  0  0  0  0  0  0  0  0
    8.8141   -2.1689    0.1773 H   0  0  0  0  0  0  0  0  0  0  0  0
    9.0170   -0.6677    1.1076 H   0  0  0  0  0  0  0  0  0  0  0  0
   10.2753   -1.1817   -0.0474 H   0  0  0  0  0  0  0  0  0  0  0  0
    6.7346   -2.4272   -0.7790 H   0  0  0  0  0  0  0  0  0  0  0  0
    4.3098   -2.3964   -0.3588 H   0  0  0  0  0  0  0  0  0  0  0  0
    1.0825   -1.2661    3.5384 H   0  0  0  0  0  0  0  0  0  0  0  0
   -1.3910   -1.2360    4.0067 H   0  0  0  0  0  0  0  0  0  0  0  0
   -2.9807   -0.5351    2.2379 H   0  0  0  0  0  0  0  0  0  0  0  0
   -2.8034   -2.0343   -0.9863 H   0  0  0  0  0  0  0  0  0  0  0  0
   -4.1140   -4.0387   -1.5383 H   0  0  0  0  0  0  0  0  0  0  0  0
   -6.6125   -4.0173   -1.2646 H   0  0  0  0  0  0  0  0  0  0  0  0
   -7.7167   -1.9727   -0.4370 H   0  0  0  0  0  0  0  0  0  0  0  0
   -7.1309    1.1581   -1.7394 H   0  0  0  0  0  0  0  0  0  0  0  0
   -8.3875    0.0923   -1.0643 H   0  0  0  0  0  0  0  0  0  0  0  0
   -8.2411    1.7659   -0.4871 H   0  0  0  0  0  0  0  0  0  0  0  0
   -8.1756   -0.7713    1.3647 H   0  0  0  0  0  0  0  0  0  0  0  0
   -8.0354    0.9000    1.9443 H   0  0  0  0  0  0  0  0  0  0  0  0
   -6.7782   -0.2907    2.3579 H   0  0  0  0  0  0  0  0  0  0  0  0
   -7.3043    2.8686    1.2527 H   0  0  0  0  0  0  0  0  0  0  0  0
   -5.8642    4.7979    1.7896 H   0  0  0  0  0  0  0  0  0  0  0  0
   -3.3823    4.6134    1.4374 H   0  0  0  0  0  0  0  0  0  0  0  0
   -2.4196    2.5266    0.5682 H   0  0  0  0  0  0  0  0  0  0  0  0
   -2.4867    0.9293   -2.3208 H   0  0  0  0  0  0  0  0  0  0  0  0
   -0.0005    0.8768   -2.7420 H   0  0  0  0  0  0  0  0  0  0  0  0
    4.3840    1.9007   -0.1862 H   0  0  0  0  0  0  0  0  0  0  0  0
    6.8031    1.8876   -0.6126 H   0  0  0  0  0  0  0  0  0  0  0  0
  2  1  1  6
  1 42  1  0
  1 43  1  0
  1 44  1  0
  2  3  1  0
  2  4  1  0
  2  5  1  0
  3 45  1  0
  3 46  1  0
  3 47  1  0
  4 48  1  0
  4 49  1  0
  4 50  1  0
  5  6  2  0
  5 41  1  0
  6  7  1  0
  6 51  1  0
  7  8  2  0
  7 52  1  0
  8  9  1  0
  8 40  1  0
  9 10  1  0
  9 38  1  0
 10 11  2  0
 10 12  1  0
 12 13  2  0
 12 37  1  0
 13 14  1  0
 13 53  1  0
 14 15  2  0
 14 54  1  0
 15 16  1  0
 15 55  1  0
 16 17  1  0
 16 37  2  0
 17 18  1  0
 17 34  2  0
 18 19  1  0
 18 33  1  0
 19 20  2  0
 19 24  1  0
 20 21  1  0
 20 56  1  0
 21 22  2  0
 21 57  1  0
 22 23  1  0
 22 58  1  0
 23 24  2  0
 23 59  1  0
 24 25  1  0
 25 26  1  6
 25 27  1  0
 25 28  1  0
 26 60  1  0
 26 61  1  0
 26 62  1  0
 27 63  1  0
 27 64  1  0
 27 65  1  0
 28 29  2  0
 28 33  1  0
 29 30  1  0
 29 66  1  0
 30 31  2  0
 30 67  1  0
 31 32  1  0
 31 68  1  0
 32 33  2  0
 32 69  1  0
 34 35  1  0
 34 70  1  0
 35 36  2  0
 35 71  1  0
 36 37  1  0
 36 38  1  0
 38 39  2  0
 40 41  2  0
 40 72  1  0
 41 73  1  0
M  END

