
     RDKit          3D

 94106  0  0  0  0  0  0  0  0999 V2000
    1.2411   -0.2631   -0.5773 N   0  0  0  0  0  0  0  0  0  0  0  0
    2.3941   -0.1372   -0.5568 C   0  0  0  0  0  0  0  0  0  0  0  0
    3.8207    0.0179   -0.5317 C   0  0  0  0  0  0  0  0  0  0  0  0
    4.3683    1.3060   -0.3120 C   0  0  0  0  0  0  0  0  0  0  0  0
    3.5038    2.3949   -0.0814 N   0  0  0  0  0  0  0  0  0  0  0  0
    2.6866    2.5580    1.0541 C   0  0  0  0  0  0  0  0  0  0  0  0
    2.5468    1.7352    2.1758 C   0  0  0  0  0  0  0  0  0  0  0  0
    1.6740    2.1516    3.1826 C   0  0  0  0  0  0  0  0  0  0  0  0
    0.9585    3.3579    3.0780 C   0  0  0  0  0  0  0  0  0  0  0  0
    1.1029    4.1735    1.9568 C   0  0  0  0  0  0  0  0  0  0  0  0
    1.9719    3.7754    0.9315 C   0  0  0  0  0  0  0  0  0  0  0  0
    2.3519    4.3632   -0.3396 C   0  0  0  0  0  0  0  0  0  0  0  0
    1.9543    5.5264   -1.0121 C   0  0  0  0  0  0  0  0  0  0  0  0
    2.4982    5.7825   -2.2695 C   0  0  0  0  0  0  0  0  0  0  0  0
    1.9780    7.3583   -3.2123 Br  0  0  0  0  0  0  0  0  0  0  0  0
    3.4162    4.9026   -2.8686 C   0  0  0  0  0  0  0  0  0  0  0  0
    3.8178    3.7411   -2.2074 C   0  0  0  0  0  0  0  0  0  0  0  0
    3.2913    3.4870   -0.9393 C   0  0  0  0  0  0  0  0  0  0  0  0
    5.7729    1.4633   -0.3208 C   0  0  0  0  0  0  0  0  0  0  0  0
    6.3763    2.7298   -0.1840 N   0  0  0  0  0  0  0  0  0  0  0  0
    6.3756    3.5363    0.9690 C   0  0  0  0  0  0  0  0  0  0  0  0
    5.8436    3.2776    2.2344 C   0  0  0  0  0  0  0  0  0  0  0  0
    6.0079    4.2528    3.2198 C   0  0  0  0  0  0  0  0  0  0  0  0
    6.6936    5.4521    2.9563 C   0  0  0  0  0  0  0  0  0  0  0  0
    7.2390    5.6957    1.6967 C   0  0  0  0  0  0  0  0  0  0  0  0
    7.0851    4.7321    0.6904 C   0  0  0  0  0  0  0  0  0  0  0  0
    7.5415    4.6437   -0.6842 C   0  0  0  0  0  0  0  0  0  0  0  0
    8.2722    5.5113   -1.5067 C   0  0  0  0  0  0  0  0  0  0  0  0
    8.5494    5.1108   -2.8123 C   0  0  0  0  0  0  0  0  0  0  0  0
    9.5477    6.2671   -3.9560 Br  0  0  0  0  0  0  0  0  0  0  0  0
    8.1133    3.8706   -3.3102 C   0  0  0  0  0  0  0  0  0  0  0  0
    7.3820    3.0006   -2.5001 C   0  0  0  0  0  0  0  0  0  0  0  0
    7.1016    3.3952   -1.1891 C   0  0  0  0  0  0  0  0  0  0  0  0
    6.5912    0.3181   -0.4830 C   0  0  0  0  0  0  0  0  0  0  0  0
    8.0178    0.4725   -0.4560 C   0  0  0  0  0  0  0  0  0  0  0  0
    9.1709    0.5975   -0.4350 N   0  0  0  0  0  0  0  0  0  0  0  0
    6.0434   -0.9749   -0.6714 C   0  0  0  0  0  0  0  0  0  0  0  0
    6.9082   -2.0820   -0.7861 N   0  0  0  0  0  0  0  0  0  0  0  0
    7.7222   -2.5871    0.2464 C   0  0  0  0  0  0  0  0  0  0  0  0
    7.8560   -2.1513    1.5680 C   0  0  0  0  0  0  0  0  0  0  0  0
    8.7257   -2.8581    2.4006 C   0  0  0  0  0  0  0  0  0  0  0  0
    9.4439   -3.9725    1.9313 C   0  0  0  0  0  0  0  0  0  0  0  0
    9.3057   -4.4014    0.6121 C   0  0  0  0  0  0  0  0  0  0  0  0
    8.4397   -3.7065   -0.2435 C   0  0  0  0  0  0  0  0  0  0  0  0
    8.0638   -3.8740   -1.6351 C   0  0  0  0  0  0  0  0  0  0  0  0
    8.4634   -4.7746   -2.6313 C   0  0  0  0  0  0  0  0  0  0  0  0
    7.9205   -4.6334   -3.9071 C   0  0  0  0  0  0  0  0  0  0  0  0
    8.4421   -5.8460   -5.2860 Br  0  0  0  0  0  0  0  0  0  0  0  0
    7.0019   -3.6130   -4.2086 C   0  0  0  0  0  0  0  0  0  0  0  0
    6.5981   -2.7105   -3.2237 C   0  0  0  0  0  0  0  0  0  0  0  0
    7.1235   -2.8570   -1.9382 C   0  0  0  0  0  0  0  0  0  0  0  0
    4.6391   -1.1218   -0.7284 C   0  0  0  0  0  0  0  0  0  0  0  0
    4.0362   -2.3694   -0.9869 N   0  0  0  0  0  0  0  0  0  0  0  0
    3.3161   -2.6961   -2.1525 C   0  0  0  0  0  0  0  0  0  0  0  0
    3.0464   -1.9152   -3.2802 C   0  0  0  0  0  0  0  0  0  0  0  0
    2.3199   -2.5014   -4.3183 C   0  0  0  0  0  0  0  0  0  0  0  0
    1.8736   -3.8328   -4.2381 C   0  0  0  0  0  0  0  0  0  0  0  0
    2.1466   -4.6058   -3.1107 C   0  0  0  0  0  0  0  0  0  0  0  0
    2.8728   -4.0383   -2.0544 C   0  0  0  0  0  0  0  0  0  0  0  0
    3.3225   -4.5394   -0.7690 C   0  0  0  0  0  0  0  0  0  0  0  0
    3.1589   -5.7657   -0.1114 C   0  0  0  0  0  0  0  0  0  0  0  0
    3.6994   -5.9091    1.1651 C   0  0  0  0  0  0  0  0  0  0  0  0
    3.4984   -7.5696    2.0850 Br  0  0  0  0  0  0  0  0  0  0  0  0
    4.3844   -4.8574    1.7980 C   0  0  0  0  0  0  0  0  0  0  0  0
    4.5525   -3.6318    1.1518 C   0  0  0  0  0  0  0  0  0  0  0  0
    4.0308   -3.4871   -0.1355 C   0  0  0  0  0  0  0  0  0  0  0  0
    3.0895    0.7925    2.2682 H   0  0  0  0  0  0  0  0  0  0  0  0
    1.5423    1.5220    4.0659 H   0  0  0  0  0  0  0  0  0  0  0  0
    0.2818    3.6543    3.8824 H   0  0  0  0  0  0  0  0  0  0  0  0
    0.5465    5.1105    1.8767 H   0  0  0  0  0  0  0  0  0  0  0  0
    1.2313    6.2126   -0.5687 H   0  0  0  0  0  0  0  0  0  0  0  0
    3.8169    5.1296   -3.8574 H   0  0  0  0  0  0  0  0  0  0  0  0
    4.5243    3.0620   -2.6847 H   0  0  0  0  0  0  0  0  0  0  0  0
    5.3156    2.3503    2.4564 H   0  0  0  0  0  0  0  0  0  0  0  0
    5.5942    4.0756    4.2154 H   0  0  0  0  0  0  0  0  0  0  0  0
    6.8050    6.1946    3.7497 H   0  0  0  0  0  0  0  0  0  0  0  0
    7.7849    6.6209    1.4974 H   0  0  0  0  0  0  0  0  0  0  0  0
    8.6170    6.4782   -1.1374 H   0  0  0  0  0  0  0  0  0  0  0  0
    8.3534    3.5851   -4.3353 H   0  0  0  0  0  0  0  0  0  0  0  0
    7.0557    2.0368   -2.8954 H   0  0  0  0  0  0  0  0  0  0  0  0
    7.3114   -1.2834    1.9449 H   0  0  0  0  0  0  0  0  0  0  0  0
    8.8526   -2.5325    3.4358 H   0  0  0  0  0  0  0  0  0  0  0  0
   10.1176   -4.5030    2.6077 H   0  0  0  0  0  0  0  0  0  0  0  0
    9.8635   -5.2678    0.2490 H   0  0  0  0  0  0  0  0  0  0  0  0
    9.1861   -5.5637   -2.4185 H   0  0  0  0  0  0  0  0  0  0  0  0
    6.6016   -3.5267   -5.2195 H   0  0  0  0  0  0  0  0  0  0  0  0
    5.8885   -1.9208   -3.4697 H   0  0  0  0  0  0  0  0  0  0  0  0
    3.3780   -0.8776   -3.3535 H   0  0  0  0  0  0  0  0  0  0  0  0
    2.0905   -1.9090   -5.2072 H   0  0  0  0  0  0  0  0  0  0  0  0
    1.3062   -4.2616   -5.0670 H   0  0  0  0  0  0  0  0  0  0  0  0
    1.8006   -5.6404   -3.0503 H   0  0  0  0  0  0  0  0  0  0  0  0
    2.6166   -6.5874   -0.5812 H   0  0  0  0  0  0  0  0  0  0  0  0
    4.7878   -5.0009    2.8014 H   0  0  0  0  0  0  0  0  0  0  0  0
    5.0816   -2.8218    1.6536 H   0  0  0  0  0  0  0  0  0  0  0  0
  1  2  3  0
  2  3  1  0
  3  4  2  0
  3 52  1  0
  4  5  1  0
  4 19  1  0
  5  6  1  0
  5 18  1  0
  6  7  2  0
  6 11  1  0
  7  8  1  0
  7 67  1  0
  8  9  2  0
  8 68  1  0
  9 10  1  0
  9 69  1  0
 10 11  2  0
 10 70  1  0
 11 12  1  0
 12 13  1  0
 12 18  2  0
 13 14  2  0
 13 71  1  0
 14 15  1  0
 14 16  1  0
 16 17  2  0
 16 72  1  0
 17 18  1  0
 17 73  1  0
 19 20  1  0
 19 34  2  0
 20 21  1  0
 20 33  1  0
 21 22  2  0
 21 26  1  0
 22 23  1  0
 22 74  1  0
 23 24  2  0
 23 75  1  0
 24 25  1  0
 24 76  1  0
 25 26  2  0
 25 77  1  0
 26 27  1  0
 27 28  1  0
 27 33  2  0
 28 29  2  0
 28 78  1  0
 29 30  1  0
 29 31  1  0
 31 32  2  0
 31 79  1  0
 32 33  1  0
 32 80  1  0
 34 35  1  0
 34 37  1  0
 35 36  3  0
 37 38  1  0
 37 52  2  0
 38 39  1  0
 38 51  1  0
 39 40  2  0
 39 44  1  0
 40 41  1  0
 40 81  1  0
 41 42  2  0
 41 82  1  0
 42 43  1  0
 42 83  1  0
 43 44  2  0
 43 84  1  0
 44 45  1  0
 45 46  1  0
 45 51  2  0
 46 47  2  0
 46 85  1  0
 47 48  1  0
 47 49  1  0
 49 50  2  0
 49 86  1  0
 50 51  1  0
 50 87  1  0
 52 53  1  0
 53 54  1  0
 53 66  1  0
 54 55  2  0
 54 59  1  0
 55 56  1  0
 55 88  1  0
 56 57  2  0
 56 89  1  0
 57 58  1  0
 57 90  1  0
 58 59  2  0
 58 91  1  0
 59 60  1  0
 60 61  1  0
 60 66  2  0
 61 62  2  0
 61 92  1  0
 62 63  1  0
 62 64  1  0
 64 65  2  0
 64 93  1  0
 65 66  1  0
 65 94  1  0
M  END

