
     RDKit          3D

 36 38  0  0  0  0  0  0  0  0999 V2000
    1.1907   -0.2112    0.0623 C   0  0  0  0  0  0  0  0  0  0  0  0
    2.4499   -0.3447   -0.5491 O   0  0  0  0  0  0  0  0  0  0  0  0
    2.9634   -1.5895   -0.7523 C   0  0  0  0  0  0  0  0  0  0  0  0
    4.2336   -1.6503   -1.3564 C   0  0  0  0  0  0  0  0  0  0  0  0
    4.8508   -2.8657   -1.6068 C   0  0  0  0  0  0  0  0  0  0  0  0
    4.1971   -4.0749   -1.2511 C   0  0  0  0  0  0  0  0  0  0  0  0
    4.8229   -5.2840   -1.5014 N   0  0  0  0  0  0  0  0  0  0  0  0
    6.0708   -5.3511   -2.0943 N   0  0  0  0  0  0  0  0  0  0  0  0
    6.2885   -6.7047   -2.1842 C   0  0  0  0  0  0  0  0  0  0  0  0
    7.4721   -7.2805   -2.6861 C   0  0  0  0  0  0  0  0  0  0  0  0
    8.4244   -7.8141   -3.1107 N   0  0  0  0  0  0  0  0  0  0  0  0
    5.1563   -7.3592   -1.6263 C   0  0  0  0  0  0  0  0  0  0  0  0
    4.9139   -8.7332   -1.4614 N   0  0  0  0  0  0  0  0  0  0  0  0
    3.7180   -9.1619   -0.7793 C   0  0  0  0  0  0  0  0  0  0  0  0
    2.6511   -9.5444   -1.8504 C   0  0  0  0  0  0  0  0  0  0  0  0
    3.1769  -10.5074   -2.7257 O   0  0  0  0  0  0  0  0  0  0  0  0
    4.3268  -10.0766   -3.4043 C   0  0  0  0  0  0  0  0  0  0  0  0
    5.4446   -9.7130   -2.3772 C   0  0  0  0  0  0  0  0  0  0  0  0
    4.2630   -6.4821   -1.2081 N   0  0  0  0  0  0  0  0  0  0  0  0
    2.9226   -4.0185   -0.6462 C   0  0  0  0  0  0  0  0  0  0  0  0
    2.3146   -2.7897   -0.4010 C   0  0  0  0  0  0  0  0  0  0  0  0
    0.9844    0.8660    0.1286 H   0  0  0  0  0  0  0  0  0  0  0  0
    1.1774   -0.6393    1.0821 H   0  0  0  0  0  0  0  0  0  0  0  0
    0.3888   -0.6907   -0.5298 H   0  0  0  0  0  0  0  0  0  0  0  0
    4.7232   -0.7109   -1.6221 H   0  0  0  0  0  0  0  0  0  0  0  0
    5.8346   -2.9184   -2.0711 H   0  0  0  0  0  0  0  0  0  0  0  0
    3.3451   -8.3567   -0.1377 H   0  0  0  0  0  0  0  0  0  0  0  0
    3.9459  -10.0607   -0.1834 H   0  0  0  0  0  0  0  0  0  0  0  0
    2.3568   -8.6235   -2.3864 H   0  0  0  0  0  0  0  0  0  0  0  0
    1.7712   -9.9845   -1.3603 H   0  0  0  0  0  0  0  0  0  0  0  0
    4.1195   -9.1878   -4.0289 H   0  0  0  0  0  0  0  0  0  0  0  0
    4.6682  -10.9025   -4.0440 H   0  0  0  0  0  0  0  0  0  0  0  0
    6.3359   -9.3394   -2.8930 H   0  0  0  0  0  0  0  0  0  0  0  0
    5.7032  -10.6260   -1.8174 H   0  0  0  0  0  0  0  0  0  0  0  0
    2.4186   -4.9451   -0.3732 H   0  0  0  0  0  0  0  0  0  0  0  0
    1.3299   -2.7768    0.0674 H   0  0  0  0  0  0  0  0  0  0  0  0
  1  2  1  0
  1 22  1  0
  1 23  1  0
  1 24  1  0
  2  3  1  0
  3  4  2  0
  3 21  1  0
  4  5  1  0
  4 25  1  0
  5  6  2  0
  5 26  1  0
  6  7  1  0
  6 20  1  0
  7  8  1  0
  7 19  1  0
  8  9  2  0
  9 10  1  0
  9 12  1  0
 10 11  3  0
 12 13  1  0
 12 19  2  0
 13 14  1  0
 13 18  1  0
 14 15  1  0
 14 27  1  0
 14 28  1  0
 15 16  1  0
 15 29  1  0
 15 30  1  0
 16 17  1  0
 17 18  1  0
 17 31  1  0
 17 32  1  0
 18 33  1  0
 18 34  1  0
 20 21  2  0
 20 35  1  0
 21 36  1  0
M  END

