
     RDKit          3D

 85 95  0  0  0  0  0  0  0  0999 V2000
    0.1918    0.8276   -0.2949 O   0  0  0  0  0  0  0  0  0  0  0  0
    0.1583    1.3381    0.8549 C   0  0  0  0  0  0  0  0  0  0  0  0
    1.4302    1.5227    1.5975 C   0  0  0  0  0  0  0  0  0  0  0  0
    2.6090    0.9828    1.0429 C   0  0  0  0  0  0  0  0  0  0  0  0
    3.8269    1.0011    1.7269 C   0  0  0  0  0  0  0  0  0  0  0  0
    5.0393    0.4313    1.0971 C   0  0  0  0  0  0  0  0  0  0  0  0
    6.0623   -0.1714    1.8847 C   0  0  0  0  0  0  0  0  0  0  0  0
    7.2078   -0.7147    1.3261 C   0  0  0  0  0  0  0  0  0  0  0  0
    7.3518   -0.6454   -0.0753 C   0  0  0  0  0  0  0  0  0  0  0  0
    6.3381   -0.0637   -0.8966 C   0  0  0  0  0  0  0  0  0  0  0  0
    5.2001    0.4676   -0.3152 C   0  0  0  0  0  0  0  0  0  0  0  0
    6.8000   -0.1946   -2.2757 C   0  0  0  0  0  0  0  0  0  0  0  0
    6.2771    0.1877   -3.5076 C   0  0  0  0  0  0  0  0  0  0  0  0
    7.0211   -0.0808   -4.6713 C   0  0  0  0  0  0  0  0  0  0  0  0
    8.2696   -0.7103   -4.6004 C   0  0  0  0  0  0  0  0  0  0  0  0
    8.8147   -1.1008   -3.3695 C   0  0  0  0  0  0  0  0  0  0  0  0
    8.0592   -0.8459   -2.2221 C   0  0  0  0  0  0  0  0  0  0  0  0
    8.3731   -1.1106   -0.8773 N   0  0  0  0  0  0  0  0  0  0  0  0
    9.5670   -1.7414   -0.4206 C   0  0  0  0  0  0  0  0  0  0  0  0
    9.9010   -3.0210   -0.8894 C   0  0  0  0  0  0  0  0  0  0  0  0
   11.0706   -3.6337   -0.4375 C   0  0  0  0  0  0  0  0  0  0  0  0
   11.9021   -2.9787    0.4771 C   0  0  0  0  0  0  0  0  0  0  0  0
   11.5636   -1.7035    0.9415 C   0  0  0  0  0  0  0  0  0  0  0  0
   10.3983   -1.0785    0.4949 C   0  0  0  0  0  0  0  0  0  0  0  0
    3.8953    1.5715    3.0257 C   0  0  0  0  0  0  0  0  0  0  0  0
    2.7595    2.1492    3.5776 C   0  0  0  0  0  0  0  0  0  0  0  0
    1.5556    2.1371    2.8632 C   0  0  0  0  0  0  0  0  0  0  0  0
    0.1972    3.1086    3.5020 S   0  0  2  0  0  0  0  0  0  0  0  0
    0.3243    4.4371    2.8741 O   0  0  0  0  0  0  0  0  0  0  0  0
    0.1933    3.0328    4.9756 O   0  0  0  0  0  0  0  0  0  0  0  0
   -1.1910    2.2534    2.8277 C   0  0  0  0  0  0  0  0  0  0  0  0
   -2.4112    2.3628    3.5009 C   0  0  0  0  0  0  0  0  0  0  0  0
   -3.5776    1.8878    2.9124 C   0  0  0  0  0  0  0  0  0  0  0  0
   -3.5376    1.3016    1.6169 C   0  0  0  0  0  0  0  0  0  0  0  0
   -4.7889    0.8175    0.9707 C   0  0  0  0  0  0  0  0  0  0  0  0
   -4.7782   -0.3311    0.1398 C   0  0  0  0  0  0  0  0  0  0  0  0
   -5.9240   -0.8127   -0.4891 C   0  0  0  0  0  0  0  0  0  0  0  0
   -7.1260   -0.1231   -0.2876 C   0  0  0  0  0  0  0  0  0  0  0  0
   -7.1756    1.0200    0.5506 C   0  0  0  0  0  0  0  0  0  0  0  0
   -6.0085    1.4821    1.1712 C   0  0  0  0  0  0  0  0  0  0  0  0
   -8.5566    1.4661    0.5663 C   0  0  0  0  0  0  0  0  0  0  0  0
   -9.2213    2.5332    1.1862 C   0  0  0  0  0  0  0  0  0  0  0  0
  -10.5905    2.6973    0.9758 C   0  0  0  0  0  0  0  0  0  0  0  0
  -11.2974    1.8083    0.1451 C   0  0  0  0  0  0  0  0  0  0  0  0
  -10.6600    0.7372   -0.4838 C   0  0  0  0  0  0  0  0  0  0  0  0
   -9.2876    0.5682   -0.2593 C   0  0  0  0  0  0  0  0  0  0  0  0
   -8.4111   -0.3935   -0.7734 N   0  0  0  0  0  0  0  0  0  0  0  0
   -8.7615   -1.4523   -1.6501 C   0  0  0  0  0  0  0  0  0  0  0  0
   -8.1116   -1.5914   -2.8867 C   0  0  0  0  0  0  0  0  0  0  0  0
   -8.4545   -2.6395   -3.7438 C   0  0  0  0  0  0  0  0  0  0  0  0
   -9.4576   -3.5459   -3.3866 C   0  0  0  0  0  0  0  0  0  0  0  0
  -10.1112   -3.4040   -2.1586 C   0  0  0  0  0  0  0  0  0  0  0  0
   -9.7612   -2.3692   -1.2881 C   0  0  0  0  0  0  0  0  0  0  0  0
   -2.3082    1.1825    0.9718 C   0  0  0  0  0  0  0  0  0  0  0  0
   -1.0914    1.6277    1.5493 C   0  0  0  0  0  0  0  0  0  0  0  0
    2.4912    0.5194    0.0615 H   0  0  0  0  0  0  0  0  0  0  0  0
    5.9218   -0.2349    2.9636 H   0  0  0  0  0  0  0  0  0  0  0  0
    7.9629   -1.1933    1.9504 H   0  0  0  0  0  0  0  0  0  0  0  0
    4.4255    0.9286   -0.9280 H   0  0  0  0  0  0  0  0  0  0  0  0
    5.3105    0.6910   -3.5742 H   0  0  0  0  0  0  0  0  0  0  0  0
    6.6200    0.2134   -5.6431 H   0  0  0  0  0  0  0  0  0  0  0  0
    8.8334   -0.8980   -5.5163 H   0  0  0  0  0  0  0  0  0  0  0  0
    9.7936   -1.5782   -3.3152 H   0  0  0  0  0  0  0  0  0  0  0  0
    9.2347   -3.5369   -1.5832 H   0  0  0  0  0  0  0  0  0  0  0  0
   11.3271   -4.6336   -0.7944 H   0  0  0  0  0  0  0  0  0  0  0  0
   12.8156   -3.4631    0.8286 H   0  0  0  0  0  0  0  0  0  0  0  0
   12.2150   -1.1858    1.6489 H   0  0  0  0  0  0  0  0  0  0  0  0
   10.1407   -0.0734    0.8341 H   0  0  0  0  0  0  0  0  0  0  0  0
    4.8404    1.6129    3.5699 H   0  0  0  0  0  0  0  0  0  0  0  0
    2.7839    2.6256    4.5602 H   0  0  0  0  0  0  0  0  0  0  0  0
   -2.4294    2.8220    4.4919 H   0  0  0  0  0  0  0  0  0  0  0  0
   -4.5200    1.9472    3.4591 H   0  0  0  0  0  0  0  0  0  0  0  0
   -3.8397   -0.8721    0.0045 H   0  0  0  0  0  0  0  0  0  0  0  0
   -5.8793   -1.7099   -1.1084 H   0  0  0  0  0  0  0  0  0  0  0  0
   -6.0442    2.3767    1.7963 H   0  0  0  0  0  0  0  0  0  0  0  0
   -8.6707    3.2302    1.8231 H   0  0  0  0  0  0  0  0  0  0  0  0
  -11.1193    3.5250    1.4544 H   0  0  0  0  0  0  0  0  0  0  0  0
  -12.3682    1.9583   -0.0156 H   0  0  0  0  0  0  0  0  0  0  0  0
  -11.2163    0.0593   -1.1331 H   0  0  0  0  0  0  0  0  0  0  0  0
   -7.3450   -0.8687   -3.1727 H   0  0  0  0  0  0  0  0  0  0  0  0
   -7.9415   -2.7395   -4.7038 H   0  0  0  0  0  0  0  0  0  0  0  0
   -9.7284   -4.3606   -4.0626 H   0  0  0  0  0  0  0  0  0  0  0  0
  -10.8915   -4.1119   -1.8678 H   0  0  0  0  0  0  0  0  0  0  0  0
  -10.2524   -2.2705   -0.3182 H   0  0  0  0  0  0  0  0  0  0  0  0
   -2.2286    0.7373   -0.0209 H   0  0  0  0  0  0  0  0  0  0  0  0
  1  2  2  0
  2  3  1  0
  2 55  1  0
  3  4  1  0
  3 27  2  0
  4  5  2  0
  4 56  1  0
  5  6  1  0
  5 25  1  0
  6  7  2  0
  6 11  1  0
  7  8  1  0
  7 57  1  0
  8  9  2  0
  8 58  1  0
  9 10  1  0
  9 18  1  0
 10 11  2  0
 10 12  1  0
 11 59  1  0
 12 13  2  0
 12 17  1  0
 13 14  1  0
 13 60  1  0
 14 15  2  0
 14 61  1  0
 15 16  1  0
 15 62  1  0
 16 17  2  0
 16 63  1  0
 17 18  1  0
 18 19  1  0
 19 20  2  0
 19 24  1  0
 20 21  1  0
 20 64  1  0
 21 22  2  0
 21 65  1  0
 22 23  1  0
 22 66  1  0
 23 24  2  0
 23 67  1  0
 24 68  1  0
 25 26  2  0
 25 69  1  0
 26 27  1  0
 26 70  1  0
 28 27  1  6
 28 29  2  0
 28 30  2  0
 28 31  1  0
 31 32  1  0
 31 55  2  0
 32 33  2  0
 32 71  1  0
 33 34  1  0
 33 72  1  0
 34 35  1  0
 34 54  2  0
 35 36  2  0
 35 40  1  0
 36 37  1  0
 36 73  1  0
 37 38  2  0
 37 74  1  0
 38 39  1  0
 38 47  1  0
 39 40  2  0
 39 41  1  0
 40 75  1  0
 41 42  2  0
 41 46  1  0
 42 43  1  0
 42 76  1  0
 43 44  2  0
 43 77  1  0
 44 45  1  0
 44 78  1  0
 45 46  2  0
 45 79  1  0
 46 47  1  0
 47 48  1  0
 48 49  2  0
 48 53  1  0
 49 50  1  0
 49 80  1  0
 50 51  2  0
 50 81  1  0
 51 52  1  0
 51 82  1  0
 52 53  2  0
 52 83  1  0
 53 84  1  0
 54 55  1  0
 54 85  1  0
M  END

