
     RDKit          3D

 38 39  0  0  0  0  0  0  0  0999 V2000
    1.4879    1.0800   -0.0493 C   0  0  0  0  0  0  0  0  0  0  0  0
    2.9988    1.2345   -0.0007 C   0  0  0  0  0  0  0  0  0  0  0  0
    3.5652    1.3851   -1.3163 O   0  0  0  0  0  0  0  0  0  0  0  0
    3.8153    0.2604   -2.0166 C   0  0  0  0  0  0  0  0  0  0  0  0
    3.6037   -0.8639   -1.6166 O   0  0  0  0  0  0  0  0  0  0  0  0
    4.3873    0.5795   -3.3408 C   0  0  0  0  0  0  0  0  0  0  0  0
    4.7283   -0.4169   -4.2657 C   0  0  0  0  0  0  0  0  0  0  0  0
    5.2625   -0.0909   -5.5150 C   0  0  0  0  0  0  0  0  0  0  0  0
    5.6018   -1.1814   -6.4551 C   0  0  0  0  0  0  0  0  0  0  0  0
    6.0630   -1.0448   -7.5739 O   0  0  0  0  0  0  0  0  0  0  0  0
    5.3421   -2.4041   -5.9271 O   0  0  0  0  0  0  0  0  0  0  0  0
    5.6193   -3.5525   -6.7426 C   0  0  0  0  0  0  0  0  0  0  0  0
    4.4590   -3.8864   -7.6666 C   0  0  0  0  0  0  0  0  0  0  0  0
    5.4735    1.3114   -5.8682 C   0  0  0  0  0  0  0  0  0  0  0  0
    5.9971    1.8020   -7.0727 C   0  0  0  0  0  0  0  0  0  0  0  0
    6.1625    3.1670   -7.3154 C   0  0  0  0  0  0  0  0  0  0  0  0
    5.8076    4.1283   -6.3500 C   0  0  0  0  0  0  0  0  0  0  0  0
    5.9955    5.5983   -6.6311 C   0  0  0  0  0  0  0  0  0  0  0  0
    5.2816    3.6972   -5.1332 C   0  0  0  0  0  0  0  0  0  0  0  0
    5.1056    2.3177   -4.8688 C   0  0  0  0  0  0  0  0  0  0  0  0
    4.6134    1.8320   -3.7408 N   0  0  0  0  0  0  0  0  0  0  0  0
    1.0827    1.0500    0.9749 H   0  0  0  0  0  0  0  0  0  0  0  0
    1.2067    0.1448   -0.5556 H   0  0  0  0  0  0  0  0  0  0  0  0
    1.0225    1.9257   -0.5791 H   0  0  0  0  0  0  0  0  0  0  0  0
    3.4685    0.3713    0.4936 H   0  0  0  0  0  0  0  0  0  0  0  0
    3.2904    2.1529    0.5292 H   0  0  0  0  0  0  0  0  0  0  0  0
    4.5532   -1.4490   -3.9597 H   0  0  0  0  0  0  0  0  0  0  0  0
    5.8014   -4.3658   -6.0246 H   0  0  0  0  0  0  0  0  0  0  0  0
    6.5385   -3.3707   -7.3189 H   0  0  0  0  0  0  0  0  0  0  0  0
    3.5293   -4.0322   -7.0946 H   0  0  0  0  0  0  0  0  0  0  0  0
    4.6740   -4.8166   -8.2171 H   0  0  0  0  0  0  0  0  0  0  0  0
    4.3013   -3.0831   -8.4013 H   0  0  0  0  0  0  0  0  0  0  0  0
    6.2749    1.0626   -7.8246 H   0  0  0  0  0  0  0  0  0  0  0  0
    6.5761    3.4916   -8.2734 H   0  0  0  0  0  0  0  0  0  0  0  0
    5.4213    5.9066   -7.5207 H   0  0  0  0  0  0  0  0  0  0  0  0
    7.0540    5.8280   -6.8386 H   0  0  0  0  0  0  0  0  0  0  0  0
    5.6722    6.2222   -5.7854 H   0  0  0  0  0  0  0  0  0  0  0  0
    4.9939    4.4097   -4.3591 H   0  0  0  0  0  0  0  0  0  0  0  0
  1  2  1  0
  1 22  1  0
  1 23  1  0
  1 24  1  0
  2  3  1  0
  2 25  1  0
  2 26  1  0
  3  4  1  0
  4  5  2  0
  4  6  1  0
  6  7  2  0
  6 21  1  0
  7  8  1  0
  7 27  1  0
  8  9  1  0
  8 14  2  0
  9 10  2  0
  9 11  1  0
 11 12  1  0
 12 13  1  0
 12 28  1  0
 12 29  1  0
 13 30  1  0
 13 31  1  0
 13 32  1  0
 14 15  1  0
 14 20  1  0
 15 16  2  0
 15 33  1  0
 16 17  1  0
 16 34  1  0
 17 18  1  0
 17 19  2  0
 18 35  1  0
 18 36  1  0
 18 37  1  0
 19 20  1  0
 19 38  1  0
 20 21  2  0
M  END

