
     RDKit          3D

 49 54  0  0  0  0  0  0  0  0999 V2000
   -0.8616   -1.1677   -0.0384 C   0  0  0  0  0  0  0  0  0  0  0  0
   -0.8654   -0.4267   -1.2219 C   0  0  0  0  0  0  0  0  0  0  0  0
   -0.1499    0.7699   -1.2670 C   0  0  0  0  0  0  0  0  0  0  0  0
    0.5510    1.1925   -0.1226 C   0  0  0  0  0  0  0  0  0  0  0  0
    1.3312    2.4738   -0.1381 C   0  0  0  0  0  0  0  0  0  0  0  0
    0.6508    3.7135   -0.1641 C   0  0  0  0  0  0  0  0  0  0  0  0
   -0.7816    3.7987   -0.1142 C   0  0  0  0  0  0  0  0  0  0  0  0
   -1.4317    5.0065   -0.1429 C   0  0  0  0  0  0  0  0  0  0  0  0
   -0.6902    6.2193   -0.2242 C   0  0  0  0  0  0  0  0  0  0  0  0
    0.6807    6.1883   -0.2591 C   0  0  0  0  0  0  0  0  0  0  0  0
    1.4046    4.9493   -0.2207 C   0  0  0  0  0  0  0  0  0  0  0  0
    2.8182    4.9157   -0.2348 C   0  0  0  0  0  0  0  0  0  0  0  0
    3.5951    6.1961   -0.2867 C   0  0  0  0  0  0  0  0  0  0  0  0
    3.8855    6.9052    0.9166 C   0  0  0  0  0  0  0  0  0  0  0  0
    4.5935    8.0874    0.8908 C   0  0  0  0  0  0  0  0  0  0  0  0
    5.0580    8.6386   -0.3360 C   0  0  0  0  0  0  0  0  0  0  0  0
    5.7895    9.8578   -0.4007 C   0  0  0  0  0  0  0  0  0  0  0  0
    6.2225   10.3586   -1.6106 C   0  0  0  0  0  0  0  0  0  0  0  0
    5.9434    9.6613   -2.8142 C   0  0  0  0  0  0  0  0  0  0  0  0
    5.2365    8.4774   -2.7851 C   0  0  0  0  0  0  0  0  0  0  0  0
    4.7744    7.9335   -1.5531 C   0  0  0  0  0  0  0  0  0  0  0  0
    4.0405    6.7158   -1.4900 C   0  0  0  0  0  0  0  0  0  0  0  0
    3.4973    3.6758   -0.1856 C   0  0  0  0  0  0  0  0  0  0  0  0
    4.9307    3.6023   -0.1825 C   0  0  0  0  0  0  0  0  0  0  0  0
    5.5854    2.3975   -0.1468 C   0  0  0  0  0  0  0  0  0  0  0  0
    4.8461    1.1811   -0.1132 C   0  0  0  0  0  0  0  0  0  0  0  0
    3.4745    1.2036   -0.1087 C   0  0  0  0  0  0  0  0  0  0  0  0
    2.7451    2.4390   -0.1390 C   0  0  0  0  0  0  0  0  0  0  0  0
    0.5591    0.4715    1.0091 N   0  0  0  0  0  0  0  0  0  0  0  0
   -0.1303   -0.6710    1.0448 C   0  0  0  0  0  0  0  0  0  0  0  0
   -1.4079   -2.1099    0.0464 H   0  0  0  0  0  0  0  0  0  0  0  0
   -1.4159   -0.7765   -2.0994 H   0  0  0  0  0  0  0  0  0  0  0  0
   -0.1266    1.3777   -2.1740 H   0  0  0  0  0  0  0  0  0  0  0  0
   -1.3611    2.8779   -0.0399 H   0  0  0  0  0  0  0  0  0  0  0  0
   -2.5233    5.0402   -0.0981 H   0  0  0  0  0  0  0  0  0  0  0  0
   -1.2169    7.1766   -0.2527 H   0  0  0  0  0  0  0  0  0  0  0  0
    1.2446    7.1202   -0.3151 H   0  0  0  0  0  0  0  0  0  0  0  0
    3.5364    6.4955    1.8676 H   0  0  0  0  0  0  0  0  0  0  0  0
    4.8079    8.6185    1.8225 H   0  0  0  0  0  0  0  0  0  0  0  0
    6.0037   10.3932    0.5286 H   0  0  0  0  0  0  0  0  0  0  0  0
    6.7835   11.2959   -1.6468 H   0  0  0  0  0  0  0  0  0  0  0  0
    6.2920   10.0676   -3.7672 H   0  0  0  0  0  0  0  0  0  0  0  0
    5.0203    7.9391   -3.7121 H   0  0  0  0  0  0  0  0  0  0  0  0
    3.8256    6.1841   -2.4211 H   0  0  0  0  0  0  0  0  0  0  0  0
    5.5011    4.5314   -0.2096 H   0  0  0  0  0  0  0  0  0  0  0  0
    6.6781    2.3686   -0.1441 H   0  0  0  0  0  0  0  0  0  0  0  0
    5.3762    0.2255   -0.0866 H   0  0  0  0  0  0  0  0  0  0  0  0
    2.9199    0.2667   -0.0685 H   0  0  0  0  0  0  0  0  0  0  0  0
   -0.0993   -1.2269    1.9899 H   0  0  0  0  0  0  0  0  0  0  0  0
  1  2  2  0
  1 30  1  0
  1 31  1  0
  2  3  1  0
  2 32  1  0
  3  4  2  0
  3 33  1  0
  4  5  1  0
  4 29  1  0
  5  6  1  0
  5 28  2  0
  6  7  2  0
  6 11  1  0
  7  8  1  0
  7 34  1  0
  8  9  2  0
  8 35  1  0
  9 10  1  0
  9 36  1  0
 10 11  2  0
 10 37  1  0
 11 12  1  0
 12 13  1  0
 12 23  2  0
 13 14  2  0
 13 22  1  0
 14 15  1  0
 14 38  1  0
 15 16  2  0
 15 39  1  0
 16 17  1  0
 16 21  1  0
 17 18  2  0
 17 40  1  0
 18 19  1  0
 18 41  1  0
 19 20  2  0
 19 42  1  0
 20 21  1  0
 20 43  1  0
 21 22  2  0
 22 44  1  0
 23 24  1  0
 23 28  1  0
 24 25  2  0
 24 45  1  0
 25 26  1  0
 25 46  1  0
 26 27  2  0
 26 47  1  0
 27 28  1  0
 27 48  1  0
 29 30  2  0
 30 49  1  0
M  END

