
     RDKit          3D

 66 70  0  0  0  0  0  0  0  0999 V2000
    6.0932    4.4944    2.6265 C   0  0  0  0  0  0  0  0  0  0  0  0
    6.3685    3.0433    2.3311 C   0  0  0  0  0  0  0  0  0  0  0  0
    5.4038    2.2311    1.6714 C   0  0  0  0  0  0  0  0  0  0  0  0
    5.6324    0.8999    1.3879 C   0  0  0  0  0  0  0  0  0  0  0  0
    6.8641    0.2920    1.7968 C   0  0  0  0  0  0  0  0  0  0  0  0
    7.2408   -1.2797    1.2806 S   0  0  1  0  0  0  0  0  0  0  0  0
    8.3172   -1.8828    2.0933 O   0  0  0  0  0  0  0  0  0  0  0  0
    6.0281   -2.0500    0.9444 O   0  0  0  0  0  0  0  0  0  0  0  0
    8.0407   -1.3530   -0.5204 N   0  0  0  0  0  0  0  0  0  0  0  0
    9.3818   -1.6269   -0.6180 C   0  0  0  0  0  0  0  0  0  0  0  0
   10.3994   -0.6229   -0.5334 C   0  0  0  0  0  0  0  0  0  0  0  0
   10.3183    0.7915   -0.5312 C   0  0  0  0  0  0  0  0  0  0  0  0
    9.1747    1.5585   -0.5995 C   0  0  0  0  0  0  0  0  0  0  0  0
    9.1283    3.0017   -0.7273 C   0  0  0  0  0  0  0  0  0  0  0  0
   10.2773    3.8316   -0.7259 C   0  0  0  0  0  0  0  0  0  0  0  0
   10.1640    5.2093   -0.8759 C   0  0  0  0  0  0  0  0  0  0  0  0
    8.9036    5.8037   -1.0368 C   0  0  0  0  0  0  0  0  0  0  0  0
    7.7566    5.0028   -1.0407 C   0  0  0  0  0  0  0  0  0  0  0  0
    7.8652    3.6229   -0.8818 C   0  0  0  0  0  0  0  0  0  0  0  0
   11.9943   -1.3443   -0.6260 S   0  0  0  0  0  0  0  0  0  0  0  0
   11.3384   -2.9498   -0.8654 C   0  0  0  0  0  0  0  0  0  0  0  0
   12.2572   -4.0666   -0.9391 C   0  0  0  0  0  0  0  0  0  0  0  0
   11.8776   -5.4013   -0.6361 C   0  0  0  0  0  0  0  0  0  0  0  0
   12.7823   -6.4460   -0.6758 C   0  0  0  0  0  0  0  0  0  0  0  0
   14.1443   -6.2368   -1.0340 C   0  0  0  0  0  0  0  0  0  0  0  0
   15.0399   -7.2720   -1.0840 N   0  0  0  0  0  0  0  0  0  0  0  0
   16.4319   -7.0229   -1.4206 C   0  0  0  0  0  0  0  0  0  0  0  0
   14.6120   -8.6280   -0.7805 C   0  0  0  0  0  0  0  0  0  0  0  0
   14.5337   -4.9000   -1.3334 C   0  0  0  0  0  0  0  0  0  0  0  0
   13.6214   -3.8637   -1.2791 C   0  0  0  0  0  0  0  0  0  0  0  0
    9.9285   -2.9238   -0.8565 C   0  0  0  0  0  0  0  0  0  0  0  0
    9.0597   -4.1006   -1.0862 C   0  0  0  0  0  0  0  0  0  0  0  0
    9.0550   -4.8874   -2.2911 C   0  0  0  0  0  0  0  0  0  0  0  0
    8.1444   -5.9099   -2.2547 C   0  0  0  0  0  0  0  0  0  0  0  0
    7.2730   -5.9330   -0.7586 S   0  0  0  0  0  0  0  0  0  0  0  0
    8.1322   -4.5585   -0.1704 C   0  0  0  0  0  0  0  0  0  0  0  0
    7.8635    1.1012    2.4284 C   0  0  0  0  0  0  0  0  0  0  0  0
    7.5889    2.4330    2.6960 C   0  0  0  0  0  0  0  0  0  0  0  0
    5.0320    4.6633    2.8754 H   0  0  0  0  0  0  0  0  0  0  0  0
    6.3287    5.1517    1.7680 H   0  0  0  0  0  0  0  0  0  0  0  0
    6.6961    4.8540    3.4758 H   0  0  0  0  0  0  0  0  0  0  0  0
    4.4392    2.6701    1.3964 H   0  0  0  0  0  0  0  0  0  0  0  0
    4.8720    0.2871    0.9020 H   0  0  0  0  0  0  0  0  0  0  0  0
    7.4747   -2.1110   -0.9035 H   0  0  0  0  0  0  0  0  0  0  0  0
   11.2845    1.3065   -0.5324 H   0  0  0  0  0  0  0  0  0  0  0  0
    8.2182    1.0355   -0.6287 H   0  0  0  0  0  0  0  0  0  0  0  0
   11.2694    3.3920   -0.6037 H   0  0  0  0  0  0  0  0  0  0  0  0
   11.0632    5.8308   -0.8694 H   0  0  0  0  0  0  0  0  0  0  0  0
    8.8196    6.8869   -1.1560 H   0  0  0  0  0  0  0  0  0  0  0  0
    6.7710    5.4587   -1.1628 H   0  0  0  0  0  0  0  0  0  0  0  0
    6.9682    3.0009   -0.8668 H   0  0  0  0  0  0  0  0  0  0  0  0
   10.8551   -5.6119   -0.3293 H   0  0  0  0  0  0  0  0  0  0  0  0
   12.4299   -7.4414   -0.4104 H   0  0  0  0  0  0  0  0  0  0  0  0
   16.5396   -6.5915   -2.4313 H   0  0  0  0  0  0  0  0  0  0  0  0
   16.9856   -7.9691   -1.3978 H   0  0  0  0  0  0  0  0  0  0  0  0
   16.9106   -6.3321   -0.7046 H   0  0  0  0  0  0  0  0  0  0  0  0
   13.8068   -8.9632   -1.4568 H   0  0  0  0  0  0  0  0  0  0  0  0
   14.2445   -8.7228    0.2566 H   0  0  0  0  0  0  0  0  0  0  0  0
   15.4605   -9.3119   -0.9019 H   0  0  0  0  0  0  0  0  0  0  0  0
   15.5601   -4.6744   -1.6184 H   0  0  0  0  0  0  0  0  0  0  0  0
   13.9658   -2.8585   -1.5328 H   0  0  0  0  0  0  0  0  0  0  0  0
    9.7029   -4.6832   -3.1447 H   0  0  0  0  0  0  0  0  0  0  0  0
    7.9268   -6.6438   -3.0295 H   0  0  0  0  0  0  0  0  0  0  0  0
    7.9144   -4.1422    0.8126 H   0  0  0  0  0  0  0  0  0  0  0  0
    8.7997    0.6443    2.7496 H   0  0  0  0  0  0  0  0  0  0  0  0
    8.3442    3.0292    3.2178 H   0  0  0  0  0  0  0  0  0  0  0  0
  1  2  1  0
  1 39  1  0
  1 40  1  0
  1 41  1  0
  2  3  2  0
  2 38  1  0
  3  4  1  0
  3 42  1  0
  4  5  2  0
  4 43  1  0
  5  6  1  0
  5 37  1  0
  6  7  2  0
  6  8  2  0
  6  9  1  6
  9 10  1  0
  9 44  1  0
 10 11  2  0
 10 31  1  0
 11 12  1  0
 11 20  1  0
 12 13  2  0
 12 45  1  0
 13 14  1  0
 13 46  1  0
 14 15  2  0
 14 19  1  0
 15 16  1  0
 15 47  1  0
 16 17  2  0
 16 48  1  0
 17 18  1  0
 17 49  1  0
 18 19  2  0
 18 50  1  0
 19 51  1  0
 20 21  1  0
 21 22  1  0
 21 31  2  0
 22 23  2  0
 22 30  1  0
 23 24  1  0
 23 52  1  0
 24 25  2  0
 24 53  1  0
 25 26  1  0
 25 29  1  0
 26 27  1  0
 26 28  1  0
 27 54  1  0
 27 55  1  0
 27 56  1  0
 28 57  1  0
 28 58  1  0
 28 59  1  0
 29 30  2  0
 29 60  1  0
 30 61  1  0
 31 32  1  0
 32 33  1  0
 32 36  2  0
 33 34  2  0
 33 62  1  0
 34 35  1  0
 34 63  1  0
 35 36  1  0
 36 64  1  0
 37 38  2  0
 37 65  1  0
 38 66  1  0
M  END

