
     RDKit          3D

119132  0  0  0  0  0  0  0  0999 V2000
  -12.8268    4.3691   -1.9520 C   0  0  0  0  0  0  0  0  0  0  0  0
  -13.5230    3.2645   -1.4493 C   0  0  0  0  0  0  0  0  0  0  0  0
  -12.8254    2.1677   -0.9433 C   0  0  0  0  0  0  0  0  0  0  0  0
  -11.4192    2.1627   -0.9339 C   0  0  0  0  0  0  0  0  0  0  0  0
  -10.6749    0.9950   -0.3959 C   0  0  0  0  0  0  0  0  0  0  0  0
  -11.3786   -0.0429    0.0740 N   0  0  0  0  0  0  0  0  0  0  0  0
  -10.6728   -1.0763    0.5506 C   0  0  0  0  0  0  0  0  0  0  0  0
  -11.4148   -2.2487    1.0815 C   0  0  0  0  0  0  0  0  0  0  0  0
  -10.7206   -3.3583    1.5955 C   0  0  0  0  0  0  0  0  0  0  0  0
  -11.4190   -4.4579    2.0943 C   0  0  0  0  0  0  0  0  0  0  0  0
  -12.8181   -4.4640    2.0861 C   0  0  0  0  0  0  0  0  0  0  0  0
  -13.5165   -3.3640    1.5763 C   0  0  0  0  0  0  0  0  0  0  0  0
  -12.8209   -2.2628    1.0769 C   0  0  0  0  0  0  0  0  0  0  0  0
   -9.3333   -1.1106    0.5738 N   0  0  0  0  0  0  0  0  0  0  0  0
   -8.7046   -0.0344    0.0868 C   0  0  0  0  0  0  0  0  0  0  0  0
   -7.2173   -0.0296    0.0936 C   0  0  0  0  0  0  0  0  0  0  0  0
   -6.5050    1.0762   -0.4018 C   0  0  0  0  0  0  0  0  0  0  0  0
   -5.1111    1.0801   -0.3956 C   0  0  0  0  0  0  0  0  0  0  0  0
   -4.4032   -0.0210    0.1051 C   0  0  0  0  0  0  0  0  0  0  0  0
   -2.9698   -0.0166    0.1104 N   0  0  0  0  0  0  0  0  0  0  0  0
   -2.2771   -0.5186   -1.0066 C   0  0  0  0  0  0  0  0  0  0  0  0
   -2.9921   -1.0211   -2.1183 C   0  0  0  0  0  0  0  0  0  0  0  0
   -2.3265   -1.5219   -3.2324 C   0  0  0  0  0  0  0  0  0  0  0  0
   -0.9292   -1.5355   -3.2711 C   0  0  0  0  0  0  0  0  0  0  0  0
   -0.2249   -1.0402   -2.1770 C   0  0  0  0  0  0  0  0  0  0  0  0
   -0.8664   -0.5297   -1.0393 C   0  0  0  0  0  0  0  0  0  0  0  0
   -0.0000   -0.0043    0.1197 C   0  0  2  0  0  0  0  0  0  0  0  0
   -0.8780    0.5127    1.2737 C   0  0  0  0  0  0  0  0  0  0  0  0
   -0.2478    1.0277    2.4158 C   0  0  0  0  0  0  0  0  0  0  0  0
   -0.9631    1.5165    3.5056 C   0  0  0  0  0  0  0  0  0  0  0  0
   -2.3600    1.4915    3.4581 C   0  0  0  0  0  0  0  0  0  0  0  0
   -3.0143    0.9861    2.3394 C   0  0  0  0  0  0  0  0  0  0  0  0
   -2.2883    0.4901    1.2321 C   0  0  0  0  0  0  0  0  0  0  0  0
    0.8680    1.1564   -0.3992 C   0  0  0  0  0  0  0  0  0  0  0  0
    0.2279    2.2938   -0.9125 C   0  0  0  0  0  0  0  0  0  0  0  0
    0.9338    3.3891   -1.4031 C   0  0  0  0  0  0  0  0  0  0  0  0
    2.3310    3.3520   -1.3817 C   0  0  0  0  0  0  0  0  0  0  0  0
    2.9950    2.2383   -0.8780 C   0  0  0  0  0  0  0  0  0  0  0  0
    2.2786    1.1255   -0.3802 C   0  0  0  0  0  0  0  0  0  0  0  0
    2.9698    0.0089    0.1248 N   0  0  0  0  0  0  0  0  0  0  0  0
    4.4032    0.0148    0.1258 C   0  0  0  0  0  0  0  0  0  0  0  0
    5.1071    0.5159    1.2294 C   0  0  0  0  0  0  0  0  0  0  0  0
    6.5010    0.5227    1.2301 C   0  0  0  0  0  0  0  0  0  0  0  0
    7.2173    0.0277    0.1268 C   0  0  0  0  0  0  0  0  0  0  0  0
    8.7046    0.0355    0.1268 C   0  0  0  0  0  0  0  0  0  0  0  0
    9.3371   -0.4512   -0.9474 N   0  0  0  0  0  0  0  0  0  0  0  0
   10.6764   -0.4267   -0.9091 C   0  0  0  0  0  0  0  0  0  0  0  0
   11.4224   -0.9577   -2.0789 C   0  0  0  0  0  0  0  0  0  0  0  0
   10.7319   -1.4729   -3.1903 C   0  0  0  0  0  0  0  0  0  0  0  0
   11.4341   -1.9716   -4.2876 C   0  0  0  0  0  0  0  0  0  0  0  0
   12.8332   -1.9621   -4.2895 C   0  0  0  0  0  0  0  0  0  0  0  0
   13.5278   -1.4510   -3.1877 C   0  0  0  0  0  0  0  0  0  0  0  0
   12.8285   -0.9517   -2.0889 C   0  0  0  0  0  0  0  0  0  0  0  0
   11.3786    0.0504    0.1265 N   0  0  0  0  0  0  0  0  0  0  0  0
   10.6713    0.5196    1.1623 C   0  0  0  0  0  0  0  0  0  0  0  0
   11.4117    1.0582    2.3322 C   0  0  0  0  0  0  0  0  0  0  0  0
   10.7158    1.5642    3.4445 C   0  0  0  0  0  0  0  0  0  0  0  0
   11.4126    2.0703    4.5418 C   0  0  0  0  0  0  0  0  0  0  0  0
   12.8117    2.0776    4.5428 C   0  0  0  0  0  0  0  0  0  0  0  0
   13.5117    1.5759    3.4402 C   0  0  0  0  0  0  0  0  0  0  0  0
   12.8178    1.0692    2.3413 C   0  0  0  0  0  0  0  0  0  0  0  0
    9.3318    0.5289    1.2011 N   0  0  0  0  0  0  0  0  0  0  0  0
    6.5063   -0.4743   -0.9769 C   0  0  0  0  0  0  0  0  0  0  0  0
    5.1124   -0.4802   -0.9771 C   0  0  0  0  0  0  0  0  0  0  0  0
    2.2868   -1.1133    0.6285 C   0  0  0  0  0  0  0  0  0  0  0  0
    3.0113   -2.2194    1.1294 C   0  0  0  0  0  0  0  0  0  0  0  0
    2.3555   -3.3385    1.6319 C   0  0  0  0  0  0  0  0  0  0  0  0
    0.9586   -3.3876    1.6491 C   0  0  0  0  0  0  0  0  0  0  0  0
    0.2448   -2.2989    1.1554 C   0  0  0  0  0  0  0  0  0  0  0  0
    0.8764   -1.1565    0.6432 C   0  0  0  0  0  0  0  0  0  0  0  0
   -5.1084   -1.1264    0.6004 C   0  0  0  0  0  0  0  0  0  0  0  0
   -6.5023   -1.1310    0.5950 C   0  0  0  0  0  0  0  0  0  0  0  0
   -9.3356    1.0379   -0.4061 N   0  0  0  0  0  0  0  0  0  0  0  0
  -10.7271    3.2769   -1.4407 C   0  0  0  0  0  0  0  0  0  0  0  0
  -11.4276    4.3721   -1.9462 C   0  0  0  0  0  0  0  0  0  0  0  0
  -13.3747    5.2280   -2.3484 H   0  0  0  0  0  0  0  0  0  0  0  0
  -14.6159    3.2589   -1.4523 H   0  0  0  0  0  0  0  0  0  0  0  0
  -13.3559    1.3009   -0.5487 H   0  0  0  0  0  0  0  0  0  0  0  0
   -9.6305   -3.3414    1.5963 H   0  0  0  0  0  0  0  0  0  0  0  0
  -10.8703   -5.3154    2.4918 H   0  0  0  0  0  0  0  0  0  0  0  0
  -13.3644   -5.3263    2.4773 H   0  0  0  0  0  0  0  0  0  0  0  0
  -14.6094   -3.3654    1.5684 H   0  0  0  0  0  0  0  0  0  0  0  0
  -13.3531   -1.3995    0.6769 H   0  0  0  0  0  0  0  0  0  0  0  0
   -7.0615    1.9293   -0.7901 H   0  0  0  0  0  0  0  0  0  0  0  0
   -4.5572    1.9391   -0.7801 H   0  0  0  0  0  0  0  0  0  0  0  0
   -4.0812   -1.0178   -2.1054 H   0  0  0  0  0  0  0  0  0  0  0  0
   -2.9085   -1.9034   -4.0753 H   0  0  0  0  0  0  0  0  0  0  0  0
   -0.3967   -1.9260   -4.1410 H   0  0  0  0  0  0  0  0  0  0  0  0
    0.8674   -1.0440   -2.1957 H   0  0  0  0  0  0  0  0  0  0  0  0
    0.8443    1.0405    2.4414 H   0  0  0  0  0  0  0  0  0  0  0  0
   -0.4393    1.9108    4.3791 H   0  0  0  0  0  0  0  0  0  0  0  0
   -2.9504    1.8678    4.2975 H   0  0  0  0  0  0  0  0  0  0  0  0
   -4.1033    0.9741    2.3197 H   0  0  0  0  0  0  0  0  0  0  0  0
   -0.8643    2.3113   -0.9224 H   0  0  0  0  0  0  0  0  0  0  0  0
    0.4024    4.2586   -1.7960 H   0  0  0  0  0  0  0  0  0  0  0  0
    2.9141    4.1959   -1.7594 H   0  0  0  0  0  0  0  0  0  0  0  0
    4.0841    2.2268   -0.8686 H   0  0  0  0  0  0  0  0  0  0  0  0
    4.5501    0.9003    2.0864 H   0  0  0  0  0  0  0  0  0  0  0  0
    7.0545    0.9114    2.0851 H   0  0  0  0  0  0  0  0  0  0  0  0
    9.6418   -1.4747   -3.1766 H   0  0  0  0  0  0  0  0  0  0  0  0
   10.8883   -2.3701   -5.1465 H   0  0  0  0  0  0  0  0  0  0  0  0
   13.3824   -2.3532   -5.1500 H   0  0  0  0  0  0  0  0  0  0  0  0
   14.6207   -1.4420   -3.1860 H   0  0  0  0  0  0  0  0  0  0  0  0
   13.3578   -0.5507   -1.2242 H   0  0  0  0  0  0  0  0  0  0  0  0
    9.6257    1.5531    3.4315 H   0  0  0  0  0  0  0  0  0  0  0  0
   10.8626    2.4615    5.4013 H   0  0  0  0  0  0  0  0  0  0  0  0
   13.3567    2.4746    5.4033 H   0  0  0  0  0  0  0  0  0  0  0  0
   14.6046    1.5800    3.4377 H   0  0  0  0  0  0  0  0  0  0  0  0
   13.3512    0.6753    1.4760 H   0  0  0  0  0  0  0  0  0  0  0  0
    7.0639   -0.8577   -1.8316 H   0  0  0  0  0  0  0  0  0  0  0  0
    4.5595   -0.8695   -1.8346 H   0  0  0  0  0  0  0  0  0  0  0  0
    4.1003   -2.1983    1.1234 H   0  0  0  0  0  0  0  0  0  0  0  0
    2.9447   -4.1769    2.0120 H   0  0  0  0  0  0  0  0  0  0  0  0
    0.4336   -4.2615    2.0410 H   0  0  0  0  0  0  0  0  0  0  0  0
   -0.8474   -2.3259    1.1621 H   0  0  0  0  0  0  0  0  0  0  0  0
   -4.5524   -1.9820    0.9893 H   0  0  0  0  0  0  0  0  0  0  0  0
   -7.0568   -1.9875    0.9787 H   0  0  0  0  0  0  0  0  0  0  0  0
   -9.6370    3.2670   -1.4307 H   0  0  0  0  0  0  0  0  0  0  0  0
  -10.8805    5.2332   -2.3381 H   0  0  0  0  0  0  0  0  0  0  0  0
  1  2  2  0
  1 75  1  0
  1 76  1  0
  2  3  1  0
  2 77  1  0
  3  4  2  0
  3 78  1  0
  4  5  1  0
  4 74  1  0
  5  6  2  0
  5 73  1  0
  6  7  1  0
  7  8  1  0
  7 14  2  0
  8  9  2  0
  8 13  1  0
  9 10  1  0
  9 79  1  0
 10 11  2  0
 10 80  1  0
 11 12  1  0
 11 81  1  0
 12 13  2  0
 12 82  1  0
 13 83  1  0
 14 15  1  0
 15 16  1  0
 15 73  2  0
 16 17  2  0
 16 72  1  0
 17 18  1  0
 17 84  1  0
 18 19  2  0
 18 85  1  0
 19 20  1  0
 19 71  1  0
 20 21  1  0
 20 33  1  0
 21 22  2  0
 21 26  1  0
 22 23  1  0
 22 86  1  0
 23 24  2  0
 23 87  1  0
 24 25  1  0
 24 88  1  0
 25 26  2  0
 25 89  1  0
 27 26  1  6
 27 28  1  0
 27 34  1  0
 27 70  1  0
 28 29  1  0
 28 33  2  0
 29 30  2  0
 29 90  1  0
 30 31  1  0
 30 91  1  0
 31 32  2  0
 31 92  1  0
 32 33  1  0
 32 93  1  0
 34 35  2  0
 34 39  1  0
 35 36  1  0
 35 94  1  0
 36 37  2  0
 36 95  1  0
 37 38  1  0
 37 96  1  0
 38 39  2  0
 38 97  1  0
 39 40  1  0
 40 41  1  0
 40 65  1  0
 41 42  2  0
 41 64  1  0
 42 43  1  0
 42 98  1  0
 43 44  2  0
 43 99  1  0
 44 45  1  0
 44 63  1  0
 45 46  2  0
 45 62  1  0
 46 47  1  0
 47 48  1  0
 47 54  2  0
 48 49  2  0
 48 53  1  0
 49 50  1  0
 49100  1  0
 50 51  2  0
 50101  1  0
 51 52  1  0
 51102  1  0
 52 53  2  0
 52103  1  0
 53104  1  0
 54 55  1  0
 55 56  1  0
 55 62  2  0
 56 57  2  0
 56 61  1  0
 57 58  1  0
 57105  1  0
 58 59  2  0
 58106  1  0
 59 60  1  0
 59107  1  0
 60 61  2  0
 60108  1  0
 61109  1  0
 63 64  2  0
 63110  1  0
 64111  1  0
 65 66  2  0
 65 70  1  0
 66 67  1  0
 66112  1  0
 67 68  2  0
 67113  1  0
 68 69  1  0
 68114  1  0
 69 70  2  0
 69115  1  0
 71 72  2  0
 71116  1  0
 72117  1  0
 74 75  2  0
 74118  1  0
 75119  1  0
M  END

