
     RDKit          3D

 67 74  0  0  0  0  0  0  0  0999 V2000
    2.0034   -3.7526    1.8950 C   0  0  0  0  0  0  0  0  0  0  0  0
    3.2325   -3.1922    2.2584 C   0  0  0  0  0  0  0  0  0  0  0  0
    3.6713   -2.0084    1.6636 C   0  0  0  0  0  0  0  0  0  0  0  0
    2.8827   -1.3507    0.7002 C   0  0  0  0  0  0  0  0  0  0  0  0
    3.4038   -0.1162    0.0776 C   0  0  0  0  0  0  0  0  0  0  0  0
    4.7605    0.0363   -0.0717 N   0  0  0  0  0  0  0  0  0  0  0  0
    4.9315    1.1771   -0.7014 C   0  0  0  0  0  0  0  0  0  0  0  0
    6.1450    1.8285   -1.1202 C   0  0  0  0  0  0  0  0  0  0  0  0
    6.1252    3.0859   -1.7868 C   0  0  0  0  0  0  0  0  0  0  0  0
    7.3091    3.6767   -2.1668 C   0  0  0  0  0  0  0  0  0  0  0  0
    8.5647    3.0397   -1.8980 C   0  0  0  0  0  0  0  0  0  0  0  0
    9.8399    3.6101   -2.2698 C   0  0  0  0  0  0  0  0  0  0  0  0
    9.9444    4.8693   -2.9490 C   0  0  0  0  0  0  0  0  0  0  0  0
   11.1601    5.4252   -3.3100 C   0  0  0  0  0  0  0  0  0  0  0  0
   12.3585    4.7520   -3.0104 C   0  0  0  0  0  0  0  0  0  0  0  0
   13.6329    5.3285   -3.3833 N   0  0  0  0  0  0  0  0  0  0  0  0
   14.3728    6.1992   -2.6129 C   0  0  0  0  0  0  0  0  0  0  0  0
   14.0618    6.7038   -1.3379 C   0  0  0  0  0  0  0  0  0  0  0  0
   14.9774    7.5827   -0.7571 C   0  0  0  0  0  0  0  0  0  0  0  0
   16.1572    7.9407   -1.4276 C   0  0  0  0  0  0  0  0  0  0  0  0
   16.4644    7.4282   -2.7095 C   0  0  0  0  0  0  0  0  0  0  0  0
   15.5700    6.5537   -3.3055 C   0  0  0  0  0  0  0  0  0  0  0  0
   15.5254    5.8307   -4.5772 C   0  0  0  0  0  0  0  0  0  0  0  0
   16.3623    5.7365   -5.6773 C   0  0  0  0  0  0  0  0  0  0  0  0
   15.9728    4.9074   -6.7549 C   0  0  0  0  0  0  0  0  0  0  0  0
   14.7679    4.1879   -6.7294 C   0  0  0  0  0  0  0  0  0  0  0  0
   13.9090    4.2675   -5.6322 C   0  0  0  0  0  0  0  0  0  0  0  0
   14.3028    5.0929   -4.5640 C   0  0  0  0  0  0  0  0  0  0  0  0
   12.3095    3.5120   -2.3439 C   0  0  0  0  0  0  0  0  0  0  0  0
   11.0894    2.9641   -1.9889 C   0  0  0  0  0  0  0  0  0  0  0  0
    8.4470    1.7799   -1.2215 C   0  0  0  0  0  0  0  0  0  0  0  0
    7.3278    1.2050   -0.8534 N   0  0  0  0  0  0  0  0  0  0  0  0
    3.7422    1.8002   -0.9748 O   0  0  0  0  0  0  0  0  0  0  0  0
    2.7547    0.9898   -0.4592 C   0  0  0  0  0  0  0  0  0  0  0  0
    1.3922    1.4984   -0.5599 C   0  0  0  0  0  0  0  0  0  0  0  0
    1.0654    2.4408   -1.5618 C   0  0  0  0  0  0  0  0  0  0  0  0
   -0.2247    2.9602   -1.6648 C   0  0  0  0  0  0  0  0  0  0  0  0
   -1.2258    2.5601   -0.7734 C   0  0  0  0  0  0  0  0  0  0  0  0
   -0.9125    1.6394    0.2335 C   0  0  0  0  0  0  0  0  0  0  0  0
    0.3764    1.1197    0.3458 C   0  0  0  0  0  0  0  0  0  0  0  0
    1.6591   -1.9359    0.3261 C   0  0  0  0  0  0  0  0  0  0  0  0
    1.2229   -3.1222    0.9208 C   0  0  0  0  0  0  0  0  0  0  0  0
    1.6605   -4.6807    2.3602 H   0  0  0  0  0  0  0  0  0  0  0  0
    3.8571   -3.6840    3.0093 H   0  0  0  0  0  0  0  0  0  0  0  0
    4.6380   -1.5741    1.9241 H   0  0  0  0  0  0  0  0  0  0  0  0
    5.1713    3.5756   -1.9891 H   0  0  0  0  0  0  0  0  0  0  0  0
    7.2699    4.6416   -2.6754 H   0  0  0  0  0  0  0  0  0  0  0  0
    9.0401    5.4236   -3.1990 H   0  0  0  0  0  0  0  0  0  0  0  0
   11.1857    6.3878   -3.8281 H   0  0  0  0  0  0  0  0  0  0  0  0
   13.1390    6.4101   -0.8381 H   0  0  0  0  0  0  0  0  0  0  0  0
   14.7730    7.9968    0.2317 H   0  0  0  0  0  0  0  0  0  0  0  0
   16.8562    8.6304   -0.9504 H   0  0  0  0  0  0  0  0  0  0  0  0
   17.3898    7.7227   -3.2088 H   0  0  0  0  0  0  0  0  0  0  0  0
   17.3051    6.2855   -5.7226 H   0  0  0  0  0  0  0  0  0  0  0  0
   16.6265    4.8265   -7.6256 H   0  0  0  0  0  0  0  0  0  0  0  0
   14.4992    3.5574   -7.5786 H   0  0  0  0  0  0  0  0  0  0  0  0
   12.9688    3.7183   -5.5880 H   0  0  0  0  0  0  0  0  0  0  0  0
   13.2341    2.9798   -2.1049 H   0  0  0  0  0  0  0  0  0  0  0  0
   11.0971    2.0035   -1.4750 H   0  0  0  0  0  0  0  0  0  0  0  0
    9.3552    1.2168   -0.9729 H   0  0  0  0  0  0  0  0  0  0  0  0
    1.8396    2.7566   -2.2628 H   0  0  0  0  0  0  0  0  0  0  0  0
   -0.4515    3.6839   -2.4527 H   0  0  0  0  0  0  0  0  0  0  0  0
   -2.2368    2.9669   -0.8564 H   0  0  0  0  0  0  0  0  0  0  0  0
   -1.6785    1.3319    0.9508 H   0  0  0  0  0  0  0  0  0  0  0  0
    0.6083    0.4283    1.1568 H   0  0  0  0  0  0  0  0  0  0  0  0
    1.0527   -1.4693   -0.4523 H   0  0  0  0  0  0  0  0  0  0  0  0
    0.2707   -3.5623    0.6122 H   0  0  0  0  0  0  0  0  0  0  0  0
  1  2  2  0
  1 42  1  0
  1 43  1  0
  2  3  1  0
  2 44  1  0
  3  4  2  0
  3 45  1  0
  4  5  1  0
  4 41  1  0
  5  6  1  0
  5 34  2  0
  6  7  2  0
  7  8  1  0
  7 33  1  0
  8  9  2  0
  8 32  1  0
  9 10  1  0
  9 46  1  0
 10 11  2  0
 10 47  1  0
 11 12  1  0
 11 31  1  0
 12 13  2  0
 12 30  1  0
 13 14  1  0
 13 48  1  0
 14 15  2  0
 14 49  1  0
 15 16  1  0
 15 29  1  0
 16 17  1  0
 16 28  1  0
 17 18  2  0
 17 22  1  0
 18 19  1  0
 18 50  1  0
 19 20  2  0
 19 51  1  0
 20 21  1  0
 20 52  1  0
 21 22  2  0
 21 53  1  0
 22 23  1  0
 23 24  1  0
 23 28  2  0
 24 25  2  0
 24 54  1  0
 25 26  1  0
 25 55  1  0
 26 27  2  0
 26 56  1  0
 27 28  1  0
 27 57  1  0
 29 30  2  0
 29 58  1  0
 30 59  1  0
 31 32  2  0
 31 60  1  0
 33 34  1  0
 34 35  1  0
 35 36  2  0
 35 40  1  0
 36 37  1  0
 36 61  1  0
 37 38  2  0
 37 62  1  0
 38 39  1  0
 38 63  1  0
 39 40  2  0
 39 64  1  0
 40 65  1  0
 41 42  2  0
 41 66  1  0
 42 67  1  0
M  END

