
     RDKit          3D

 52 58  0  0  0  0  0  0  0  0999 V2000
    1.2364    0.2555   -1.1435 O   0  0  0  0  0  0  0  0  0  0  0  0
    2.3613    0.1452   -0.7020 C   0  0  0  0  0  0  0  0  0  0  0  0
    3.1423   -1.1192   -0.8033 C   0  0  0  0  0  0  0  0  0  0  0  0
    2.5754   -2.2105   -1.4418 C   0  0  0  0  0  0  0  0  0  0  0  0
    3.2974   -3.4173   -1.5631 C   0  0  0  0  0  0  0  0  0  0  0  0
    4.5695   -3.5333   -1.0349 C   0  0  0  0  0  0  0  0  0  0  0  0
    5.1780   -2.4398   -0.3592 C   0  0  0  0  0  0  0  0  0  0  0  0
    6.4921   -2.4990    0.2099 C   0  0  0  0  0  0  0  0  0  0  0  0
    7.2411   -3.7037    0.1533 N   0  0  0  0  0  0  0  0  0  0  0  0
    6.9751   -4.8710    0.8800 C   0  0  0  0  0  0  0  0  0  0  0  0
    5.9227   -5.1482    1.7605 C   0  0  0  0  0  0  0  0  0  0  0  0
    5.8996   -6.4040    2.3697 C   0  0  0  0  0  0  0  0  0  0  0  0
    6.9000   -7.3608    2.1151 C   0  0  0  0  0  0  0  0  0  0  0  0
    7.9519   -7.0746    1.2455 C   0  0  0  0  0  0  0  0  0  0  0  0
    8.0001   -5.8200    0.6202 C   0  0  0  0  0  0  0  0  0  0  0  0
    8.9316   -5.1912   -0.2976 C   0  0  0  0  0  0  0  0  0  0  0  0
   10.1172   -5.6125   -0.9172 C   0  0  0  0  0  0  0  0  0  0  0  0
   10.7849   -4.7369   -1.7726 C   0  0  0  0  0  0  0  0  0  0  0  0
   10.2773   -3.4469   -2.0174 C   0  0  0  0  0  0  0  0  0  0  0  0
    9.0989   -3.0029   -1.4156 C   0  0  0  0  0  0  0  0  0  0  0  0
    8.4361   -3.8845   -0.5537 C   0  0  0  0  0  0  0  0  0  0  0  0
    7.0444   -1.3762    0.8094 C   0  0  0  0  0  0  0  0  0  0  0  0
    6.3251   -0.1676    0.8844 C   0  0  0  0  0  0  0  0  0  0  0  0
    5.0426   -0.0808    0.3673 C   0  0  0  0  0  0  0  0  0  0  0  0
    4.4517   -1.2095   -0.2588 C   0  0  0  0  0  0  0  0  0  0  0  0
    4.3023    1.2069    0.4772 C   0  0  0  0  0  0  0  0  0  0  0  0
    4.7799    2.1913    1.0028 O   0  0  0  0  0  0  0  0  0  0  0  0
    2.9996    1.2306   -0.0635 N   0  0  0  0  0  0  0  0  0  0  0  0
    2.2584    2.4671    0.0442 C   0  0  0  0  0  0  0  0  0  0  0  0
    1.2314    2.5807    0.9844 C   0  0  0  0  0  0  0  0  0  0  0  0
    0.5160    3.7756    1.0876 C   0  0  0  0  0  0  0  0  0  0  0  0
    0.8297    4.8557    0.2572 C   0  0  0  0  0  0  0  0  0  0  0  0
    1.8598    4.7371   -0.6805 C   0  0  0  0  0  0  0  0  0  0  0  0
    2.5738    3.5420   -0.7906 C   0  0  0  0  0  0  0  0  0  0  0  0
    1.5680   -2.1080   -1.8496 H   0  0  0  0  0  0  0  0  0  0  0  0
    2.8458   -4.2661   -2.0816 H   0  0  0  0  0  0  0  0  0  0  0  0
    5.1222   -4.4683   -1.1357 H   0  0  0  0  0  0  0  0  0  0  0  0
    5.1464   -4.4097    1.9681 H   0  0  0  0  0  0  0  0  0  0  0  0
    5.0880   -6.6454    3.0606 H   0  0  0  0  0  0  0  0  0  0  0  0
    6.8523   -8.3343    2.6085 H   0  0  0  0  0  0  0  0  0  0  0  0
    8.7319   -7.8164    1.0563 H   0  0  0  0  0  0  0  0  0  0  0  0
   10.5119   -6.6146   -0.7315 H   0  0  0  0  0  0  0  0  0  0  0  0
   11.7102   -5.0528   -2.2599 H   0  0  0  0  0  0  0  0  0  0  0  0
   10.8142   -2.7773   -2.6940 H   0  0  0  0  0  0  0  0  0  0  0  0
    8.7094   -2.0027   -1.6135 H   0  0  0  0  0  0  0  0  0  0  0  0
    8.0463   -1.4444    1.2375 H   0  0  0  0  0  0  0  0  0  0  0  0
    6.7559    0.7145    1.3617 H   0  0  0  0  0  0  0  0  0  0  0  0
    0.9934    1.7323    1.6289 H   0  0  0  0  0  0  0  0  0  0  0  0
   -0.2893    3.8625    1.8211 H   0  0  0  0  0  0  0  0  0  0  0  0
    0.2704    5.7908    0.3408 H   0  0  0  0  0  0  0  0  0  0  0  0
    2.1095    5.5784   -1.3316 H   0  0  0  0  0  0  0  0  0  0  0  0
    3.3801    3.4409   -1.5197 H   0  0  0  0  0  0  0  0  0  0  0  0
  1  2  2  0
  2  3  1  0
  2 28  1  0
  3  4  1  0
  3 25  2  0
  4  5  2  0
  4 35  1  0
  5  6  1  0
  5 36  1  0
  6  7  2  0
  6 37  1  0
  7  8  1  0
  7 25  1  0
  8  9  1  0
  8 22  2  0
  9 10  1  0
  9 21  1  0
 10 11  2  0
 10 15  1  0
 11 12  1  0
 11 38  1  0
 12 13  2  0
 12 39  1  0
 13 14  1  0
 13 40  1  0
 14 15  2  0
 14 41  1  0
 15 16  1  0
 16 17  1  0
 16 21  2  0
 17 18  2  0
 17 42  1  0
 18 19  1  0
 18 43  1  0
 19 20  2  0
 19 44  1  0
 20 21  1  0
 20 45  1  0
 22 23  1  0
 22 46  1  0
 23 24  2  0
 23 47  1  0
 24 25  1  0
 24 26  1  0
 26 27  2  0
 26 28  1  0
 28 29  1  0
 29 30  2  0
 29 34  1  0
 30 31  1  0
 30 48  1  0
 31 32  2  0
 31 49  1  0
 32 33  1  0
 32 50  1  0
 33 34  2  0
 33 51  1  0
 34 52  1  0
M  END

