
     RDKit          3D

 49 53  0  0  0  0  0  0  0  0999 V2000
    3.4269    0.0661   -1.1282 C   0  0  0  0  0  0  0  0  0  0  0  0
    2.2823    0.1096   -0.1060 C   0  0  0  0  0  0  0  0  0  0  0  0
    2.6255   -0.2230    1.2791 N   0  0  0  0  0  0  0  0  0  0  0  0
    3.1292    0.7972    2.1129 C   0  0  0  0  0  0  0  0  0  0  0  0
    3.5908    2.0235    1.5907 C   0  0  0  0  0  0  0  0  0  0  0  0
    4.0829    3.0360    2.4121 C   0  0  0  0  0  0  0  0  0  0  0  0
    4.1670    2.8665    3.8008 C   0  0  0  0  0  0  0  0  0  0  0  0
    4.7056    3.9292    4.6649 C   0  0  0  0  0  0  0  0  0  0  0  0
    4.9091    3.9098    6.0752 C   0  0  0  0  0  0  0  0  0  0  0  0
    5.4285    5.1556    6.3691 C   0  0  0  0  0  0  0  0  0  0  0  0
    5.9147    5.7414    7.6540 C   0  0  1  0  0  0  0  0  0  0  0  0
    5.2879    5.1991    8.7034 F   0  0  0  0  0  0  0  0  0  0  0  0
    7.2351    5.5529    7.8320 F   0  0  0  0  0  0  0  0  0  0  0  0
    5.7083    7.0750    7.6772 F   0  0  0  0  0  0  0  0  0  0  0  0
    5.5155    5.8273    5.1896 N   0  0  0  0  0  0  0  0  0  0  0  0
    5.8271    6.7822    5.0515 H   0  0  0  0  0  0  0  0  0  0  0  0
    5.0806    5.1097    4.1550 N   0  0  0  0  0  0  0  0  0  0  0  0
    3.7153    1.6475    4.3319 C   0  0  0  0  0  0  0  0  0  0  0  0
    3.1842    0.6466    3.5184 C   0  0  0  0  0  0  0  0  0  0  0  0
    2.4349   -0.7554    4.3098 S   0  0  0  0  0  0  0  0  0  0  0  0
    2.6403   -1.9644    3.0257 C   0  0  0  0  0  0  0  0  0  0  0  0
    2.6821   -3.3086    3.3962 C   0  0  0  0  0  0  0  0  0  0  0  0
    2.6664   -4.3374    2.4404 C   0  0  0  0  0  0  0  0  0  0  0  0
    2.6844   -5.7548    2.8359 C   0  0  0  0  0  0  0  0  0  0  0  0
    2.7960   -6.3112    4.1434 C   0  0  0  0  0  0  0  0  0  0  0  0
    2.7558   -7.6774    3.9452 C   0  0  0  0  0  0  0  0  0  0  0  0
    2.8740   -8.8134    4.9075 C   0  0  1  0  0  0  0  0  0  0  0  0
    2.6254   -8.4123    6.1583 F   0  0  0  0  0  0  0  0  0  0  0  0
    2.0073   -9.7996    4.5969 F   0  0  0  0  0  0  0  0  0  0  0  0
    4.1019   -9.3654    4.8931 F   0  0  0  0  0  0  0  0  0  0  0  0
    2.6348   -7.8712    2.6041 N   0  0  0  0  0  0  0  0  0  0  0  0
    2.5487   -8.7561    2.1166 H   0  0  0  0  0  0  0  0  0  0  0  0
    2.5857   -6.7280    1.9213 N   0  0  0  0  0  0  0  0  0  0  0  0
    2.6278   -3.9636    1.0902 C   0  0  0  0  0  0  0  0  0  0  0  0
    2.6274   -2.6220    0.7137 C   0  0  0  0  0  0  0  0  0  0  0  0
    2.6354   -1.5800    1.6645 C   0  0  0  0  0  0  0  0  0  0  0  0
    3.0406    0.3324   -2.1254 H   0  0  0  0  0  0  0  0  0  0  0  0
    3.8822   -0.9321   -1.1986 H   0  0  0  0  0  0  0  0  0  0  0  0
    4.2325    0.7718   -0.8794 H   0  0  0  0  0  0  0  0  0  0  0  0
    1.4801   -0.5761   -0.4178 H   0  0  0  0  0  0  0  0  0  0  0  0
    1.8293    1.1124   -0.0988 H   0  0  0  0  0  0  0  0  0  0  0  0
    3.5736    2.2039    0.5181 H   0  0  0  0  0  0  0  0  0  0  0  0
    4.4242    3.9730    1.9699 H   0  0  0  0  0  0  0  0  0  0  0  0
    4.7096    3.1097    6.7821 H   0  0  0  0  0  0  0  0  0  0  0  0
    3.7466    1.4692    5.4089 H   0  0  0  0  0  0  0  0  0  0  0  0
    2.6984   -3.5460    4.4621 H   0  0  0  0  0  0  0  0  0  0  0  0
    2.8934   -5.8003    5.0967 H   0  0  0  0  0  0  0  0  0  0  0  0
    2.6135   -4.7401    0.3241 H   0  0  0  0  0  0  0  0  0  0  0  0
    2.6236   -2.3937   -0.3499 H   0  0  0  0  0  0  0  0  0  0  0  0
  1  2  1  0
  1 37  1  0
  1 38  1  0
  1 39  1  0
  2  3  1  0
  2 40  1  0
  2 41  1  0
  3  4  1  0
  3 36  1  0
  4  5  1  0
  4 19  2  0
  5  6  2  0
  5 42  1  0
  6  7  1  0
  6 43  1  0
  7  8  1  0
  7 18  2  0
  8  9  1  0
  8 17  2  0
  9 10  2  0
  9 44  1  0
 10 11  1  0
 10 15  1  0
 11 12  1  1
 11 13  1  0
 11 14  1  0
 15 16  1  0
 15 17  1  0
 18 19  1  0
 18 45  1  0
 19 20  1  0
 20 21  1  0
 21 22  1  0
 21 36  2  0
 22 23  2  0
 22 46  1  0
 23 24  1  0
 23 34  1  0
 24 25  1  0
 24 33  2  0
 25 26  2  0
 25 47  1  0
 26 27  1  0
 26 31  1  0
 27 28  1  1
 27 29  1  0
 27 30  1  0
 31 32  1  0
 31 33  1  0
 34 35  2  0
 34 48  1  0
 35 36  1  0
 35 49  1  0
M  END

