
     RDKit          3D

 50 52  0  0  0  0  0  0  0  0999 V2000
    2.0084   -2.6574   -1.2537 C   0  0  0  0  0  0  0  0  0  0  0  0
    2.1241   -3.9934   -0.5470 C   0  0  0  0  0  0  0  0  0  0  0  0
    1.2842   -4.8636   -0.6947 O   0  0  0  0  0  0  0  0  0  0  0  0
    3.2133   -4.2305    0.2781 N   0  0  0  0  0  0  0  0  0  0  0  0
    4.4060   -3.5191    0.4894 C   0  0  0  0  0  0  0  0  0  0  0  0
    4.4860   -2.1224    0.5981 C   0  0  0  0  0  0  0  0  0  0  0  0
    5.7208   -1.5006    0.8056 C   0  0  0  0  0  0  0  0  0  0  0  0
    6.8991   -2.2418    0.9354 C   0  0  0  0  0  0  0  0  0  0  0  0
    6.8366   -3.6346    0.8596 C   0  0  0  0  0  0  0  0  0  0  0  0
    5.5984   -4.2820    0.6283 C   0  0  0  0  0  0  0  0  0  0  0  0
    5.5975   -5.6951    0.5326 C   0  0  0  0  0  0  0  0  0  0  0  0
    5.7021   -6.9060    0.4700 C   0  0  0  0  0  0  0  0  0  0  0  0
    5.9723   -8.2972    0.3929 C   0  0  0  0  0  0  0  0  0  0  0  0
    7.3252   -8.7154    0.4824 C   0  0  0  0  0  0  0  0  0  0  0  0
    7.6398  -10.0757    0.4359 C   0  0  0  0  0  0  0  0  0  0  0  0
    6.6231  -11.0242    0.2914 C   0  0  0  0  0  0  0  0  0  0  0  0
    5.2875  -10.6213    0.1877 C   0  0  0  0  0  0  0  0  0  0  0  0
    4.9500   -9.2646    0.2421 C   0  0  0  0  0  0  0  0  0  0  0  0
    3.5111   -8.7936    0.3036 C   0  0  0  0  0  0  0  0  0  0  0  0
    3.1139   -8.2267    1.3127 O   0  0  0  0  0  0  0  0  0  0  0  0
    2.6922   -9.0368   -0.7663 N   0  0  0  0  0  0  0  0  0  0  0  0
    3.1494   -9.4021   -2.0942 C   0  0  0  0  0  0  0  0  0  0  0  0
    1.3110   -8.5754   -0.6599 C   0  0  0  0  0  0  0  0  0  0  0  0
    8.3091   -7.7892    0.6841 O   0  0  0  0  0  0  0  0  0  0  0  0
    8.7902   -7.0765   -0.4582 C   0  0  0  0  0  0  0  0  0  0  0  0
    9.6015   -5.8513   -0.0203 C   0  0  0  0  0  0  0  0  0  0  0  0
    8.8844   -4.5033   -0.0311 C   0  0  0  0  0  0  0  0  0  0  0  0
    7.9337   -4.4274    1.0286 O   0  0  0  0  0  0  0  0  0  0  0  0
    1.2639   -2.7734   -2.0509 H   0  0  0  0  0  0  0  0  0  0  0  0
    2.9654   -2.3170   -1.6749 H   0  0  0  0  0  0  0  0  0  0  0  0
    1.6501   -1.8820   -0.5578 H   0  0  0  0  0  0  0  0  0  0  0  0
    3.2255   -5.2000    0.5991 H   0  0  0  0  0  0  0  0  0  0  0  0
    3.5829   -1.5168    0.5526 H   0  0  0  0  0  0  0  0  0  0  0  0
    5.7578   -0.4117    0.8909 H   0  0  0  0  0  0  0  0  0  0  0  0
    7.8571   -1.7532    1.1228 H   0  0  0  0  0  0  0  0  0  0  0  0
    8.6862  -10.3736    0.5291 H   0  0  0  0  0  0  0  0  0  0  0  0
    6.8735  -12.0877    0.2655 H   0  0  0  0  0  0  0  0  0  0  0  0
    4.4968  -11.3685    0.0861 H   0  0  0  0  0  0  0  0  0  0  0  0
    4.2218   -9.6284   -2.0878 H   0  0  0  0  0  0  0  0  0  0  0  0
    2.9761   -8.5764   -2.8087 H   0  0  0  0  0  0  0  0  0  0  0  0
    2.6088  -10.2893   -2.4682 H   0  0  0  0  0  0  0  0  0  0  0  0
    0.9573   -8.7173    0.3687 H   0  0  0  0  0  0  0  0  0  0  0  0
    0.6825   -9.1571   -1.3509 H   0  0  0  0  0  0  0  0  0  0  0  0
    1.2206   -7.5003   -0.8978 H   0  0  0  0  0  0  0  0  0  0  0  0
    7.9454   -6.7755   -1.1025 H   0  0  0  0  0  0  0  0  0  0  0  0
    9.4296   -7.7585   -1.0499 H   0  0  0  0  0  0  0  0  0  0  0  0
   10.4673   -5.7492   -0.6965 H   0  0  0  0  0  0  0  0  0  0  0  0
   10.0096   -6.0461    0.9848 H   0  0  0  0  0  0  0  0  0  0  0  0
    8.3756   -4.3501   -1.0009 H   0  0  0  0  0  0  0  0  0  0  0  0
    9.6315   -3.6942    0.0793 H   0  0  0  0  0  0  0  0  0  0  0  0
  1  2  1  0
  1 29  1  0
  1 30  1  0
  1 31  1  0
  2  3  2  0
  2  4  1  0
  4  5  1  0
  4 32  1  0
  5  6  2  0
  5 10  1  0
  6  7  1  0
  6 33  1  0
  7  8  2  0
  7 34  1  0
  8  9  1  0
  8 35  1  0
  9 10  2  0
  9 28  1  0
 10 11  1  0
 11 12  3  0
 12 13  1  0
 13 14  2  0
 13 18  1  0
 14 15  1  0
 14 24  1  0
 15 16  2  0
 15 36  1  0
 16 17  1  0
 16 37  1  0
 17 18  2  0
 17 38  1  0
 18 19  1  0
 19 20  2  0
 19 21  1  0
 21 22  1  0
 21 23  1  0
 22 39  1  0
 22 40  1  0
 22 41  1  0
 23 42  1  0
 23 43  1  0
 23 44  1  0
 24 25  1  0
 25 26  1  0
 25 45  1  0
 25 46  1  0
 26 27  1  0
 26 47  1  0
 26 48  1  0
 27 28  1  0
 27 49  1  0
 27 50  1  0
M  END

