
     RDKit          3D

 72 77  0  0  0  0  0  0  0  0999 V2000
    4.9441    2.3430   -2.4244 N   0  0  0  0  0  0  0  0  0  0  0  0
    4.8307    1.4769   -1.6455 C   0  0  0  0  0  0  0  0  0  0  0  0
    4.7253    0.4814   -0.6432 C   0  0  0  0  0  0  0  0  0  0  0  0
    4.2350   -0.8301   -0.9632 C   0  0  0  0  0  0  0  0  0  0  0  0
    4.6265   -1.9258   -0.1504 C   0  0  0  0  0  0  0  0  0  0  0  0
    4.9283   -2.8348    0.5216 N   0  0  0  0  0  0  0  0  0  0  0  0
    3.4122   -1.1624   -2.1283 C   0  0  0  0  0  0  0  0  0  0  0  0
    2.6271   -0.2000   -2.8116 C   0  0  0  0  0  0  0  0  0  0  0  0
    1.8304   -0.5471   -3.8974 C   0  0  0  0  0  0  0  0  0  0  0  0
    1.7844   -1.8697   -4.3715 C   0  0  0  0  0  0  0  0  0  0  0  0
    0.9781   -2.2207   -5.4923 N   0  0  0  0  0  0  0  0  0  0  0  0
    1.0005   -1.4129   -6.6561 C   0  0  0  0  0  0  0  0  0  0  0  0
    2.2020   -0.8286   -7.1016 C   0  0  0  0  0  0  0  0  0  0  0  0
    2.2175   -0.0209   -8.2394 C   0  0  0  0  0  0  0  0  0  0  0  0
    1.0457    0.2119   -8.9666 C   0  0  0  0  0  0  0  0  0  0  0  0
   -0.1498   -0.3693   -8.5315 C   0  0  0  0  0  0  0  0  0  0  0  0
   -0.1789   -1.1653   -7.3858 C   0  0  0  0  0  0  0  0  0  0  0  0
    0.1655   -3.3796   -5.4338 C   0  0  0  0  0  0  0  0  0  0  0  0
   -0.5246   -3.7115   -4.2519 C   0  0  0  0  0  0  0  0  0  0  0  0
   -1.3113   -4.8625   -4.1899 C   0  0  0  0  0  0  0  0  0  0  0  0
   -1.4413   -5.6994   -5.3029 C   0  0  0  0  0  0  0  0  0  0  0  0
   -0.7619   -5.3725   -6.4811 C   0  0  0  0  0  0  0  0  0  0  0  0
    0.0397   -4.2323   -6.5479 C   0  0  0  0  0  0  0  0  0  0  0  0
    2.5560   -2.8389   -3.7042 C   0  0  0  0  0  0  0  0  0  0  0  0
    3.3384   -2.4951   -2.6094 C   0  0  0  0  0  0  0  0  0  0  0  0
    5.2496    0.8716    0.6770 C   0  0  0  0  0  0  0  0  0  0  0  0
    6.1590    1.9529    0.8021 C   0  0  0  0  0  0  0  0  0  0  0  0
    6.6699    2.3502    2.0343 C   0  0  0  0  0  0  0  0  0  0  0  0
    6.2794    1.6746    3.1944 C   0  0  0  0  0  0  0  0  0  0  0  0
    6.8375    2.0670    4.4881 N   0  0  0  0  0  0  0  0  0  0  0  0
    6.2329    3.1356    5.1750 C   0  0  0  0  0  0  0  0  0  0  0  0
    4.8387    3.3485    5.0673 C   0  0  0  0  0  0  0  0  0  0  0  0
    4.2471    4.4118    5.7369 C   0  0  0  0  0  0  0  0  0  0  0  0
    5.0236    5.3024    6.4934 C   0  0  0  0  0  0  0  0  0  0  0  0
    6.4094    5.1232    6.5689 C   0  0  0  0  0  0  0  0  0  0  0  0
    7.0157    4.0535    5.9178 C   0  0  0  0  0  0  0  0  0  0  0  0
    7.9473    1.3984    4.9761 C   0  0  0  0  0  0  0  0  0  0  0  0
    8.7887    0.6665    4.0896 C   0  0  0  0  0  0  0  0  0  0  0  0
    9.8954   -0.0061    4.5799 C   0  0  0  0  0  0  0  0  0  0  0  0
   10.1859   -0.0060    5.9552 C   0  0  0  0  0  0  0  0  0  0  0  0
    9.3396    0.6721    6.8447 C   0  0  0  0  0  0  0  0  0  0  0  0
    8.2343    1.3641    6.3735 C   0  0  0  0  0  0  0  0  0  0  0  0
    5.3712    0.6185    3.1165 C   0  0  0  0  0  0  0  0  0  0  0  0
    4.8633    0.2274    1.8780 C   0  0  0  0  0  0  0  0  0  0  0  0
    2.6170    0.8348   -2.4720 H   0  0  0  0  0  0  0  0  0  0  0  0
    1.2275    0.2197   -4.3883 H   0  0  0  0  0  0  0  0  0  0  0  0
    3.1238   -1.0090   -6.5461 H   0  0  0  0  0  0  0  0  0  0  0  0
    3.1619    0.4235   -8.5649 H   0  0  0  0  0  0  0  0  0  0  0  0
    1.0633    0.8413   -9.8596 H   0  0  0  0  0  0  0  0  0  0  0  0
   -1.0779   -0.1901   -9.0813 H   0  0  0  0  0  0  0  0  0  0  0  0
   -1.1207   -1.6003   -7.0467 H   0  0  0  0  0  0  0  0  0  0  0  0
   -0.4359   -3.0599   -3.3809 H   0  0  0  0  0  0  0  0  0  0  0  0
   -1.8376   -5.1004   -3.2615 H   0  0  0  0  0  0  0  0  0  0  0  0
   -2.0623   -6.5969   -5.2520 H   0  0  0  0  0  0  0  0  0  0  0  0
   -0.8436   -6.0206   -7.3581 H   0  0  0  0  0  0  0  0  0  0  0  0
    0.5781   -3.9956   -7.4674 H   0  0  0  0  0  0  0  0  0  0  0  0
    2.5409   -3.8731   -4.0544 H   0  0  0  0  0  0  0  0  0  0  0  0
    3.9277   -3.2714   -2.1171 H   0  0  0  0  0  0  0  0  0  0  0  0
    6.4647    2.4923   -0.0961 H   0  0  0  0  0  0  0  0  0  0  0  0
    7.3730    3.1850    2.0906 H   0  0  0  0  0  0  0  0  0  0  0  0
    4.2352    2.6684    4.4685 H   0  0  0  0  0  0  0  0  0  0  0  0
    3.1670    4.5543    5.6646 H   0  0  0  0  0  0  0  0  0  0  0  0
    4.5509    6.1443    7.0033 H   0  0  0  0  0  0  0  0  0  0  0  0
    7.0264    5.8358    7.1203 H   0  0  0  0  0  0  0  0  0  0  0  0
    8.1012    3.9519    5.9342 H   0  0  0  0  0  0  0  0  0  0  0  0
    8.5625    0.6543    3.0255 H   0  0  0  0  0  0  0  0  0  0  0  0
   10.5423   -0.5462    3.8862 H   0  0  0  0  0  0  0  0  0  0  0  0
   11.0529   -0.5522    6.3318 H   0  0  0  0  0  0  0  0  0  0  0  0
    9.5323    0.6356    7.9188 H   0  0  0  0  0  0  0  0  0  0  0  0
    7.5493    1.8346    7.0777 H   0  0  0  0  0  0  0  0  0  0  0  0
    5.0623    0.0866    4.0200 H   0  0  0  0  0  0  0  0  0  0  0  0
    4.1584   -0.6013    1.8511 H   0  0  0  0  0  0  0  0  0  0  0  0
  1  2  3  0
  2  3  1  0
  3  4  2  0
  3 26  1  0
  4  5  1  0
  4  7  1  0
  5  6  3  0
  7  8  2  0
  7 25  1  0
  8  9  1  0
  8 45  1  0
  9 10  2  0
  9 46  1  0
 10 11  1  0
 10 24  1  0
 11 12  1  0
 11 18  1  0
 12 13  2  0
 12 17  1  0
 13 14  1  0
 13 47  1  0
 14 15  2  0
 14 48  1  0
 15 16  1  0
 15 49  1  0
 16 17  2  0
 16 50  1  0
 17 51  1  0
 18 19  2  0
 18 23  1  0
 19 20  1  0
 19 52  1  0
 20 21  2  0
 20 53  1  0
 21 22  1  0
 21 54  1  0
 22 23  2  0
 22 55  1  0
 23 56  1  0
 24 25  2  0
 24 57  1  0
 25 58  1  0
 26 27  2  0
 26 44  1  0
 27 28  1  0
 27 59  1  0
 28 29  2  0
 28 60  1  0
 29 30  1  0
 29 43  1  0
 30 31  1  0
 30 37  1  0
 31 32  2  0
 31 36  1  0
 32 33  1  0
 32 61  1  0
 33 34  2  0
 33 62  1  0
 34 35  1  0
 34 63  1  0
 35 36  2  0
 35 64  1  0
 36 65  1  0
 37 38  2  0
 37 42  1  0
 38 39  1  0
 38 66  1  0
 39 40  2  0
 39 67  1  0
 40 41  1  0
 40 68  1  0
 41 42  2  0
 41 69  1  0
 42 70  1  0
 43 44  2  0
 43 71  1  0
 44 72  1  0
M  END

