
     RDKit          3D

 50 54  0  0  0  0  0  0  0  0999 V2000
    1.4618   -0.2870    0.0156 C   0  0  0  0  0  0  0  0  0  0  0  0
    2.8156    0.0848   -0.1078 O   0  0  0  0  0  0  0  0  0  0  0  0
    3.3428    0.9769    0.7686 C   0  0  0  0  0  0  0  0  0  0  0  0
    2.6324    1.5790    1.8177 C   0  0  0  0  0  0  0  0  0  0  0  0
    3.2795    2.4877    2.6641 C   0  0  0  0  0  0  0  0  0  0  0  0
    4.6303    2.8176    2.4937 C   0  0  0  0  0  0  0  0  0  0  0  0
    5.3149    3.7880    3.4062 C   0  0  0  0  0  0  0  0  0  0  0  0
    5.2770    5.1757    3.1239 C   0  0  0  0  0  0  0  0  0  0  0  0
    4.5905    5.6909    1.9738 C   0  0  0  0  0  0  0  0  0  0  0  0
    4.5563    7.0359    1.7031 C   0  0  0  0  0  0  0  0  0  0  0  0
    5.2102    7.9577    2.5679 C   0  0  0  0  0  0  0  0  0  0  0  0
    5.8810    7.5071    3.6782 C   0  0  0  0  0  0  0  0  0  0  0  0
    5.9418    6.1150    3.9976 C   0  0  0  0  0  0  0  0  0  0  0  0
    6.6391    5.6423    5.1456 C   0  0  0  0  0  0  0  0  0  0  0  0
    7.2986    6.5634    6.0078 C   0  0  0  0  0  0  0  0  0  0  0  0
    7.8649    7.3554    6.7463 C   0  0  0  0  0  0  0  0  0  0  0  0
    8.5268    8.2805    7.6083 C   0  0  0  0  0  0  0  0  0  0  0  0
    8.4655    9.6702    7.3598 C   0  0  0  0  0  0  0  0  0  0  0  0
    9.1142   10.5699    8.2044 C   0  0  0  0  0  0  0  0  0  0  0  0
    9.8355   10.1074    9.3107 C   0  0  0  0  0  0  0  0  0  0  0  0
    9.9038    8.7337    9.5678 C   0  0  0  0  0  0  0  0  0  0  0  0
    9.2583    7.8266    8.7288 C   0  0  0  0  0  0  0  0  0  0  0  0
    6.6765    4.2474    5.4294 C   0  0  0  0  0  0  0  0  0  0  0  0
    7.3643    3.7332    6.5724 C   0  0  0  0  0  0  0  0  0  0  0  0
    7.3955    2.3872    6.8427 C   0  0  0  0  0  0  0  0  0  0  0  0
    6.7349    1.4679    5.9804 C   0  0  0  0  0  0  0  0  0  0  0  0
    6.0635    1.9204    4.8722 C   0  0  0  0  0  0  0  0  0  0  0  0
    6.0064    3.3176    4.5497 C   0  0  0  0  0  0  0  0  0  0  0  0
    5.3275    2.2038    1.4349 C   0  0  0  0  0  0  0  0  0  0  0  0
    4.6991    1.2994    0.5851 C   0  0  0  0  0  0  0  0  0  0  0  0
    1.2609   -1.0098   -0.7867 H   0  0  0  0  0  0  0  0  0  0  0  0
    0.7839    0.5775   -0.1051 H   0  0  0  0  0  0  0  0  0  0  0  0
    1.2529   -0.7670    0.9890 H   0  0  0  0  0  0  0  0  0  0  0  0
    1.5799    1.3513    1.9881 H   0  0  0  0  0  0  0  0  0  0  0  0
    2.7138    2.9486    3.4780 H   0  0  0  0  0  0  0  0  0  0  0  0
    4.0897    4.9871    1.3082 H   0  0  0  0  0  0  0  0  0  0  0  0
    4.0268    7.4026    0.8200 H   0  0  0  0  0  0  0  0  0  0  0  0
    5.1782    9.0272    2.3450 H   0  0  0  0  0  0  0  0  0  0  0  0
    6.3845    8.2119    4.3412 H   0  0  0  0  0  0  0  0  0  0  0  0
    7.9028   10.0324    6.4970 H   0  0  0  0  0  0  0  0  0  0  0  0
    9.0568   11.6417    7.9980 H   0  0  0  0  0  0  0  0  0  0  0  0
   10.3429   10.8156    9.9705 H   0  0  0  0  0  0  0  0  0  0  0  0
   10.4656    8.3660   10.4304 H   0  0  0  0  0  0  0  0  0  0  0  0
    9.3129    6.7548    8.9303 H   0  0  0  0  0  0  0  0  0  0  0  0
    7.8687    4.4397    7.2329 H   0  0  0  0  0  0  0  0  0  0  0  0
    7.9280    2.0186    7.7232 H   0  0  0  0  0  0  0  0  0  0  0  0
    6.7632    0.3984    6.2038 H   0  0  0  0  0  0  0  0  0  0  0  0
    5.5575    1.2131    4.2143 H   0  0  0  0  0  0  0  0  0  0  0  0
    6.3824    2.4434    1.2783 H   0  0  0  0  0  0  0  0  0  0  0  0
    5.2388    0.8234   -0.2361 H   0  0  0  0  0  0  0  0  0  0  0  0
  1  2  1  0
  1 31  1  0
  1 32  1  0
  1 33  1  0
  2  3  1  0
  3  4  2  0
  3 30  1  0
  4  5  1  0
  4 34  1  0
  5  6  2  0
  5 35  1  0
  6  7  1  0
  6 29  1  0
  7  8  1  0
  7 28  2  0
  8  9  2  0
  8 13  1  0
  9 10  1  0
  9 36  1  0
 10 11  2  0
 10 37  1  0
 11 12  1  0
 11 38  1  0
 12 13  2  0
 12 39  1  0
 13 14  1  0
 14 15  1  0
 14 23  2  0
 15 16  3  0
 16 17  1  0
 17 18  2  0
 17 22  1  0
 18 19  1  0
 18 40  1  0
 19 20  2  0
 19 41  1  0
 20 21  1  0
 20 42  1  0
 21 22  2  0
 21 43  1  0
 22 44  1  0
 23 24  1  0
 23 28  1  0
 24 25  2  0
 24 45  1  0
 25 26  1  0
 25 46  1  0
 26 27  2  0
 26 47  1  0
 27 28  1  0
 27 48  1  0
 29 30  2  0
 29 49  1  0
 30 50  1  0
M  END

