
     RDKit          3D

 51 53  0  0  0  0  0  0  0  0999 V2000
    2.6356   -1.1949   -0.0814 C   0  0  0  0  0  0  0  0  0  0  0  0
    2.6202   -0.1293   -1.1862 C   0  0  0  0  0  0  0  0  0  0  0  0
    3.0942    1.2065   -0.8223 N   0  0  0  0  0  0  0  0  0  0  0  0
    2.0696    2.1771   -0.4241 C   0  0  0  0  0  0  0  0  0  0  0  0
    1.2230    1.7513    0.7778 C   0  0  0  0  0  0  0  0  0  0  0  0
    4.4252    1.5340   -1.0260 C   0  0  0  0  0  0  0  0  0  0  0  0
    5.4163    0.5272   -1.0522 C   0  0  0  0  0  0  0  0  0  0  0  0
    6.7643    0.8182   -1.2680 C   0  0  0  0  0  0  0  0  0  0  0  0
    7.6209   -0.2442   -1.2570 O   0  0  0  0  0  0  0  0  0  0  0  0
    8.9585   -0.0417   -1.4375 C   0  0  0  0  0  0  0  0  0  0  0  0
    9.7631   -1.1826   -1.4137 C   0  0  0  0  0  0  0  0  0  0  0  0
   11.1650   -1.1139   -1.5840 C   0  0  0  0  0  0  0  0  0  0  0  0
   11.9570   -2.2456   -1.5223 N   0  0  0  0  0  0  0  0  0  0  0  0
   13.3139   -2.3169   -2.0863 C   0  0  0  0  0  0  0  0  0  0  0  0
   13.3910   -2.1616   -3.6068 C   0  0  0  0  0  0  0  0  0  0  0  0
   11.3912   -3.5080   -1.0521 C   0  0  0  0  0  0  0  0  0  0  0  0
   10.8029   -4.4152   -2.1389 C   0  0  0  0  0  0  0  0  0  0  0  0
   11.6847    0.2047   -1.7886 C   0  0  0  0  0  0  0  0  0  0  0  0
   13.0189    0.3839   -1.9312 F   0  0  0  0  0  0  0  0  0  0  0  0
   10.8882    1.3249   -1.8295 C   0  0  0  0  0  0  0  0  0  0  0  0
    9.4955    1.2374   -1.6522 C   0  0  0  0  0  0  0  0  0  0  0  0
    8.6383    2.4350   -1.6817 C   0  0  0  0  0  0  0  0  0  0  0  0
    9.0680    3.5684   -1.8660 O   0  0  0  0  0  0  0  0  0  0  0  0
    7.2115    2.1341   -1.4664 C   0  0  0  0  0  0  0  0  0  0  0  0
    6.2373    3.1478   -1.4671 C   0  0  0  0  0  0  0  0  0  0  0  0
    4.9052    2.8606   -1.2738 C   0  0  0  0  0  0  0  0  0  0  0  0
    4.0320    3.8907   -1.3693 F   0  0  0  0  0  0  0  0  0  0  0  0
    2.2779   -2.1553   -0.4879 H   0  0  0  0  0  0  0  0  0  0  0  0
    1.9856   -0.9236    0.7620 H   0  0  0  0  0  0  0  0  0  0  0  0
    3.6464   -1.3572    0.3213 H   0  0  0  0  0  0  0  0  0  0  0  0
    1.5882   -0.0164   -1.5620 H   0  0  0  0  0  0  0  0  0  0  0  0
    3.2140   -0.4856   -2.0441 H   0  0  0  0  0  0  0  0  0  0  0  0
    1.4018    2.3876   -1.2832 H   0  0  0  0  0  0  0  0  0  0  0  0
    2.5617    3.1197   -0.1786 H   0  0  0  0  0  0  0  0  0  0  0  0
    0.6019    0.8661    0.5732 H   0  0  0  0  0  0  0  0  0  0  0  0
    0.5381    2.5725    1.0440 H   0  0  0  0  0  0  0  0  0  0  0  0
    1.8539    1.5360    1.6547 H   0  0  0  0  0  0  0  0  0  0  0  0
    5.1601   -0.5129   -0.8673 H   0  0  0  0  0  0  0  0  0  0  0  0
    9.2576   -2.1354   -1.2769 H   0  0  0  0  0  0  0  0  0  0  0  0
   13.7076   -3.3042   -1.8024 H   0  0  0  0  0  0  0  0  0  0  0  0
   13.9648   -1.5746   -1.6052 H   0  0  0  0  0  0  0  0  0  0  0  0
   12.7820   -2.9188   -4.1245 H   0  0  0  0  0  0  0  0  0  0  0  0
   14.4353   -2.2746   -3.9410 H   0  0  0  0  0  0  0  0  0  0  0  0
   13.0496   -1.1664   -3.9262 H   0  0  0  0  0  0  0  0  0  0  0  0
   10.6306   -3.2893   -0.2880 H   0  0  0  0  0  0  0  0  0  0  0  0
   12.1937   -4.0497   -0.5240 H   0  0  0  0  0  0  0  0  0  0  0  0
    9.9948   -3.9146   -2.6941 H   0  0  0  0  0  0  0  0  0  0  0  0
   10.3905   -5.3323   -1.6876 H   0  0  0  0  0  0  0  0  0  0  0  0
   11.5721   -4.7180   -2.8663 H   0  0  0  0  0  0  0  0  0  0  0  0
   11.3394    2.3068   -1.9833 H   0  0  0  0  0  0  0  0  0  0  0  0
    6.5485    4.1768   -1.6564 H   0  0  0  0  0  0  0  0  0  0  0  0
  1  2  1  0
  1 28  1  0
  1 29  1  0
  1 30  1  0
  2  3  1  0
  2 31  1  0
  2 32  1  0
  3  4  1  0
  3  6  1  0
  4  5  1  0
  4 33  1  0
  4 34  1  0
  5 35  1  0
  5 36  1  0
  5 37  1  0
  6  7  2  0
  6 26  1  0
  7  8  1  0
  7 38  1  0
  8  9  1  0
  8 24  2  0
  9 10  1  0
 10 11  2  0
 10 21  1  0
 11 12  1  0
 11 39  1  0
 12 13  1  0
 12 18  2  0
 13 14  1  0
 13 16  1  0
 14 15  1  0
 14 40  1  0
 14 41  1  0
 15 42  1  0
 15 43  1  0
 15 44  1  0
 16 17  1  0
 16 45  1  0
 16 46  1  0
 17 47  1  0
 17 48  1  0
 17 49  1  0
 18 19  1  0
 18 20  1  0
 20 21  2  0
 20 50  1  0
 21 22  1  0
 22 23  2  0
 22 24  1  0
 24 25  1  0
 25 26  2  0
 25 51  1  0
 26 27  1  0
M  END

