
     RDKit          3D

 83 86  0  0  0  0  0  0  0  0999 V2000
    1.3767    1.9382    7.2002 C   0  0  0  0  0  0  0  0  0  0  0  0
    2.8216    2.4374    7.1551 C   0  0  0  0  0  0  0  0  0  0  0  0
    3.1640    3.2110    5.8779 C   0  0  0  0  0  0  0  0  0  0  0  0
    4.6093    3.7147    5.8254 C   0  0  0  0  0  0  0  0  0  0  0  0
    4.9540    4.4821    4.5457 C   0  0  0  0  0  0  0  0  0  0  0  0
    6.4009    4.9807    4.4968 C   0  0  0  0  0  0  0  0  0  0  0  0
    6.7442    5.7355    3.2094 C   0  0  0  0  0  0  0  0  0  0  0  0
    8.1837    6.2218    3.1365 C   0  0  0  0  0  0  0  0  0  0  0  0
    9.0436    5.0906    3.1431 O   0  0  0  0  0  0  0  0  0  0  0  0
   10.3868    5.2604    3.0901 C   0  0  0  0  0  0  0  0  0  0  0  0
   11.0281    6.5055    3.0174 C   0  0  0  0  0  0  0  0  0  0  0  0
   12.4228    6.5449    2.9650 C   0  0  0  0  0  0  0  0  0  0  0  0
   13.2107    5.3823    2.9829 C   0  0  0  0  0  0  0  0  0  0  0  0
   14.6319    5.4505    2.9307 C   0  0  0  0  0  0  0  0  0  0  0  0
   15.8486    5.5329    2.8877 C   0  0  0  0  0  0  0  0  0  0  0  0
   17.2730    5.6193    2.8400 C   0  0  0  0  0  0  0  0  0  0  0  0
   17.9055    6.8773    2.6421 C   0  0  0  0  0  0  0  0  0  0  0  0
   19.2922    7.0040    2.5909 C   0  0  0  0  0  0  0  0  0  0  0  0
   20.0421    5.8413    2.7430 C   0  0  0  0  0  0  0  0  0  0  0  0
   21.4084    5.7669    2.7240 O   0  0  0  0  0  0  0  0  0  0  0  0
   21.7290    4.4480    2.9115 C   0  0  0  0  0  0  0  0  0  0  0  0
   23.0201    3.9322    2.9621 C   0  0  0  0  0  0  0  0  0  0  0  0
   23.1409    2.5541    3.1649 C   0  0  0  0  0  0  0  0  0  0  0  0
   22.0067    1.7338    3.3099 C   0  0  0  0  0  0  0  0  0  0  0  0
   20.7187    2.2702    3.2557 C   0  0  0  0  0  0  0  0  0  0  0  0
   20.5735    3.6498    3.0534 C   0  0  0  0  0  0  0  0  0  0  0  0
   19.4548    4.5732    2.9414 C   0  0  0  0  0  0  0  0  0  0  0  0
   18.0625    4.4605    2.9899 C   0  0  0  0  0  0  0  0  0  0  0  0
   12.5396    4.1246    3.0564 C   0  0  0  0  0  0  0  0  0  0  0  0
   13.3307    3.0308    3.0680 O   0  0  0  0  0  0  0  0  0  0  0  0
   12.7566    1.7352    3.1394 C   0  0  0  0  0  0  0  0  0  0  0  0
   13.8822    0.7134    3.1020 C   0  0  0  0  0  0  0  0  0  0  0  0
   13.3797   -0.7296    3.1960 C   0  0  0  0  0  0  0  0  0  0  0  0
   14.4986   -1.7726    3.1161 C   0  0  0  0  0  0  0  0  0  0  0  0
   14.0043   -3.2179    3.2250 C   0  0  0  0  0  0  0  0  0  0  0  0
   15.1173   -4.2644    3.1189 C   0  0  0  0  0  0  0  0  0  0  0  0
   14.6234   -5.7100    3.2332 C   0  0  0  0  0  0  0  0  0  0  0  0
   15.7387   -6.7496    3.1158 C   0  0  0  0  0  0  0  0  0  0  0  0
   11.1466    4.0760    3.1101 C   0  0  0  0  0  0  0  0  0  0  0  0
    1.1667    1.3866    8.1307 H   0  0  0  0  0  0  0  0  0  0  0  0
    1.1597    1.2615    6.3566 H   0  0  0  0  0  0  0  0  0  0  0  0
    0.6610    2.7754    7.1415 H   0  0  0  0  0  0  0  0  0  0  0  0
    3.5117    1.5797    7.2548 H   0  0  0  0  0  0  0  0  0  0  0  0
    3.0172    3.0810    8.0323 H   0  0  0  0  0  0  0  0  0  0  0  0
    2.4740    4.0697    5.7764 H   0  0  0  0  0  0  0  0  0  0  0  0
    2.9696    2.5672    4.9996 H   0  0  0  0  0  0  0  0  0  0  0  0
    5.2991    2.8568    5.9307 H   0  0  0  0  0  0  0  0  0  0  0  0
    4.8022    4.3613    6.7017 H   0  0  0  0  0  0  0  0  0  0  0  0
    4.2651    5.3410    4.4378 H   0  0  0  0  0  0  0  0  0  0  0  0
    4.7626    3.8346    3.6698 H   0  0  0  0  0  0  0  0  0  0  0  0
    7.0911    4.1268    4.6039 H   0  0  0  0  0  0  0  0  0  0  0  0
    6.5927    5.6375    5.3659 H   0  0  0  0  0  0  0  0  0  0  0  0
    6.0877    6.6172    3.1018 H   0  0  0  0  0  0  0  0  0  0  0  0
    6.5476    5.0926    2.3334 H   0  0  0  0  0  0  0  0  0  0  0  0
    8.4179    6.8758    3.9982 H   0  0  0  0  0  0  0  0  0  0  0  0
    8.3467    6.8112    2.2152 H   0  0  0  0  0  0  0  0  0  0  0  0
   10.4635    7.4366    3.0007 H   0  0  0  0  0  0  0  0  0  0  0  0
   12.9294    7.5106    2.9087 H   0  0  0  0  0  0  0  0  0  0  0  0
   17.2782    7.7633    2.5274 H   0  0  0  0  0  0  0  0  0  0  0  0
   19.7757    7.9704    2.4388 H   0  0  0  0  0  0  0  0  0  0  0  0
   23.8902    4.5809    2.8483 H   0  0  0  0  0  0  0  0  0  0  0  0
   24.1368    2.1066    3.2117 H   0  0  0  0  0  0  0  0  0  0  0  0
   22.1388    0.6607    3.4673 H   0  0  0  0  0  0  0  0  0  0  0  0
   19.8426    1.6273    3.3694 H   0  0  0  0  0  0  0  0  0  0  0  0
   17.5777    3.4947    3.1427 H   0  0  0  0  0  0  0  0  0  0  0  0
   12.0633    1.5806    2.2909 H   0  0  0  0  0  0  0  0  0  0  0  0
   12.1665    1.6335    4.0703 H   0  0  0  0  0  0  0  0  0  0  0  0
   14.5787    0.9294    3.9304 H   0  0  0  0  0  0  0  0  0  0  0  0
   14.4542    0.8582    2.1695 H   0  0  0  0  0  0  0  0  0  0  0  0
   12.6496   -0.9200    2.3873 H   0  0  0  0  0  0  0  0  0  0  0  0
   12.8222   -0.8655    4.1414 H   0  0  0  0  0  0  0  0  0  0  0  0
   15.2372   -1.5771    3.9155 H   0  0  0  0  0  0  0  0  0  0  0  0
   15.0469   -1.6439    2.1646 H   0  0  0  0  0  0  0  0  0  0  0  0
   13.2518   -3.4059    2.4363 H   0  0  0  0  0  0  0  0  0  0  0  0
   13.4697   -3.3493    4.1843 H   0  0  0  0  0  0  0  0  0  0  0  0
   15.8737   -4.0749    3.9036 H   0  0  0  0  0  0  0  0  0  0  0  0
   15.6478   -4.1360    2.1567 H   0  0  0  0  0  0  0  0  0  0  0  0
   13.8627   -5.8955    2.4529 H   0  0  0  0  0  0  0  0  0  0  0  0
   14.0985   -5.8384    4.1976 H   0  0  0  0  0  0  0  0  0  0  0  0
   16.2582   -6.6721    2.1458 H   0  0  0  0  0  0  0  0  0  0  0  0
   15.3474   -7.7760    3.2019 H   0  0  0  0  0  0  0  0  0  0  0  0
   16.4972   -6.6159    3.9056 H   0  0  0  0  0  0  0  0  0  0  0  0
   10.6050    3.1335    3.1668 H   0  0  0  0  0  0  0  0  0  0  0  0
  1  2  1  0
  1 40  1  0
  1 41  1  0
  1 42  1  0
  2  3  1  0
  2 43  1  0
  2 44  1  0
  3  4  1  0
  3 45  1  0
  3 46  1  0
  4  5  1  0
  4 47  1  0
  4 48  1  0
  5  6  1  0
  5 49  1  0
  5 50  1  0
  6  7  1  0
  6 51  1  0
  6 52  1  0
  7  8  1  0
  7 53  1  0
  7 54  1  0
  8  9  1  0
  8 55  1  0
  8 56  1  0
  9 10  1  0
 10 11  2  0
 10 39  1  0
 11 12  1  0
 11 57  1  0
 12 13  2  0
 12 58  1  0
 13 14  1  0
 13 29  1  0
 14 15  3  0
 15 16  1  0
 16 17  2  0
 16 28  1  0
 17 18  1  0
 17 59  1  0
 18 19  2  0
 18 60  1  0
 19 20  1  0
 19 27  1  0
 20 21  1  0
 21 22  1  0
 21 26  2  0
 22 23  2  0
 22 61  1  0
 23 24  1  0
 23 62  1  0
 24 25  2  0
 24 63  1  0
 25 26  1  0
 25 64  1  0
 26 27  1  0
 27 28  2  0
 28 65  1  0
 29 30  1  0
 29 39  2  0
 30 31  1  0
 31 32  1  0
 31 66  1  0
 31 67  1  0
 32 33  1  0
 32 68  1  0
 32 69  1  0
 33 34  1  0
 33 70  1  0
 33 71  1  0
 34 35  1  0
 34 72  1  0
 34 73  1  0
 35 36  1  0
 35 74  1  0
 35 75  1  0
 36 37  1  0
 36 76  1  0
 36 77  1  0
 37 38  1  0
 37 78  1  0
 37 79  1  0
 38 80  1  0
 38 81  1  0
 38 82  1  0
 39 83  1  0
M  END

