
     RDKit          3D

 45 49  0  0  0  0  0  0  0  0999 V2000
    1.1797   -0.6178    0.7273 C   0  0  0  0  0  0  0  0  0  0  0  0
    2.5478   -0.4044    0.1497 C   0  0  0  0  0  0  0  0  0  0  0  0
    3.3061   -1.4807   -0.3372 C   0  0  0  0  0  0  0  0  0  0  0  0
    4.5991   -1.3617   -0.8936 C   0  0  0  0  0  0  0  0  0  0  0  0
    5.3763   -2.1556   -1.3491 O   0  0  0  0  0  0  0  0  0  0  0  0
    5.1121    0.0568   -0.9246 O   0  0  0  0  0  0  0  0  0  0  0  0
    4.4192    1.0789   -0.4729 C   0  0  0  0  0  0  0  0  0  0  0  0
    5.0310    2.3520   -0.5651 C   0  0  0  0  0  0  0  0  0  0  0  0
    4.3789    3.5218   -0.1086 C   0  0  0  0  0  0  0  0  0  0  0  0
    4.9735    4.8000   -0.1909 C   0  0  0  0  0  0  0  0  0  0  0  0
    4.3115    5.9657    0.2721 C   0  0  0  0  0  0  0  0  0  0  0  0
    4.9345    7.2833    0.1847 C   0  0  0  0  0  0  0  0  0  0  0  0
    6.1768    7.6696   -0.3107 C   0  0  0  0  0  0  0  0  0  0  0  0
    6.2117    9.0112   -0.1222 N   0  0  0  0  0  0  0  0  0  0  0  0
    7.2499    9.9691   -0.4919 C   0  0  0  0  0  0  0  0  0  0  0  0
    7.3176   10.2420   -1.9821 C   0  0  0  0  0  0  0  0  0  0  0  0
    6.1897   10.7268   -2.6640 C   0  0  0  0  0  0  0  0  0  0  0  0
    6.2531   10.9913   -4.0328 C   0  0  0  0  0  0  0  0  0  0  0  0
    7.4444   10.7789   -4.7366 C   0  0  0  0  0  0  0  0  0  0  0  0
    8.5709   10.2992   -4.0649 C   0  0  0  0  0  0  0  0  0  0  0  0
    8.5056   10.0297   -2.6934 C   0  0  0  0  0  0  0  0  0  0  0  0
    5.0687    9.4403    0.4469 N   0  0  0  0  0  0  0  0  0  0  0  0
    4.3058    8.4150    0.6331 N   0  0  0  0  0  0  0  0  0  0  0  0
    3.0302    5.8174    0.8218 C   0  0  0  0  0  0  0  0  0  0  0  0
    2.4241    4.5499    0.9093 C   0  0  0  0  0  0  0  0  0  0  0  0
    3.0665    3.3851    0.4563 C   0  0  0  0  0  0  0  0  0  0  0  0
    2.4734    2.0896    0.5358 C   0  0  0  0  0  0  0  0  0  0  0  0
    3.1038    0.9184    0.0892 C   0  0  0  0  0  0  0  0  0  0  0  0
    0.9027   -1.6812    0.6987 H   0  0  0  0  0  0  0  0  0  0  0  0
    0.4019   -0.0571    0.1754 H   0  0  0  0  0  0  0  0  0  0  0  0
    1.1156   -0.2863    1.7809 H   0  0  0  0  0  0  0  0  0  0  0  0
    2.9124   -2.4975   -0.3046 H   0  0  0  0  0  0  0  0  0  0  0  0
    6.0302    2.3974   -1.0031 H   0  0  0  0  0  0  0  0  0  0  0  0
    5.9730    4.8765   -0.6259 H   0  0  0  0  0  0  0  0  0  0  0  0
    6.9981    7.1245   -0.7667 H   0  0  0  0  0  0  0  0  0  0  0  0
    8.2167    9.5956   -0.1229 H   0  0  0  0  0  0  0  0  0  0  0  0
    7.0045   10.8831    0.0683 H   0  0  0  0  0  0  0  0  0  0  0  0
    5.2583   10.8932   -2.1156 H   0  0  0  0  0  0  0  0  0  0  0  0
    5.3695   11.3682   -4.5540 H   0  0  0  0  0  0  0  0  0  0  0  0
    7.4926   10.9879   -5.8082 H   0  0  0  0  0  0  0  0  0  0  0  0
    9.5042   10.1305   -4.6079 H   0  0  0  0  0  0  0  0  0  0  0  0
    9.3910    9.6538   -2.1720 H   0  0  0  0  0  0  0  0  0  0  0  0
    2.5087    6.7051    1.1823 H   0  0  0  0  0  0  0  0  0  0  0  0
    1.4238    4.4701    1.3434 H   0  0  0  0  0  0  0  0  0  0  0  0
    1.4741    2.0189    0.9707 H   0  0  0  0  0  0  0  0  0  0  0  0
  1  2  1  0
  1 29  1  0
  1 30  1  0
  1 31  1  0
  2  3  2  0
  2 28  1  0
  3  4  1  0
  3 32  1  0
  4  5  2  0
  4  6  1  0
  6  7  1  0
  7  8  1  0
  7 28  2  0
  8  9  2  0
  8 33  1  0
  9 10  1  0
  9 26  1  0
 10 11  2  0
 10 34  1  0
 11 12  1  0
 11 24  1  0
 12 13  2  0
 12 23  1  0
 13 14  1  0
 13 35  1  0
 14 15  1  0
 14 22  1  0
 15 16  1  0
 15 36  1  0
 15 37  1  0
 16 17  2  0
 16 21  1  0
 17 18  1  0
 17 38  1  0
 18 19  2  0
 18 39  1  0
 19 20  1  0
 19 40  1  0
 20 21  2  0
 20 41  1  0
 21 42  1  0
 22 23  2  0
 24 25  2  0
 24 43  1  0
 25 26  1  0
 25 44  1  0
 26 27  2  0
 27 28  1  0
 27 45  1  0
M  END

