
     RDKit          3D

 96106  0  0  0  0  0  0  0  0999 V2000
    2.9496   -2.6183    0.8094 C   0  0  0  0  0  0  0  0  0  0  0  0
    3.7490   -1.3815    0.4608 C   0  0  0  0  0  0  0  0  0  0  0  0
    5.1489   -1.4280    0.4977 C   0  0  0  0  0  0  0  0  0  0  0  0
    5.9126   -0.2980    0.1848 C   0  0  0  0  0  0  0  0  0  0  0  0
    7.3330   -0.3534    0.2395 N   0  0  0  0  0  0  0  0  0  0  0  0
    8.0947   -0.6838    1.3637 C   0  0  0  0  0  0  0  0  0  0  0  0
    7.6760   -1.0071    2.6612 C   0  0  0  0  0  0  0  0  0  0  0  0
    8.6578   -1.2820    3.6139 C   0  0  0  0  0  0  0  0  0  0  0  0
   10.0276   -1.2344    3.2921 C   0  0  0  0  0  0  0  0  0  0  0  0
   10.4408   -0.9010    2.0030 C   0  0  0  0  0  0  0  0  0  0  0  0
    9.4746   -0.6196    1.0260 C   0  0  0  0  0  0  0  0  0  0  0  0
    9.5444   -0.2328   -0.3693 C   0  0  0  0  0  0  0  0  0  0  0  0
   10.6035   -0.0198   -1.2638 C   0  0  0  0  0  0  0  0  0  0  0  0
   10.3198    0.3368   -2.5814 C   0  0  0  0  0  0  0  0  0  0  0  0
    8.9869    0.4753   -3.0133 C   0  0  0  0  0  0  0  0  0  0  0  0
    7.9148    0.2699   -2.1442 C   0  0  0  0  0  0  0  0  0  0  0  0
    8.2039   -0.0772   -0.8178 C   0  0  0  0  0  0  0  0  0  0  0  0
    5.2648    0.8875   -0.1800 C   0  0  0  0  0  0  0  0  0  0  0  0
    3.8666    0.9521   -0.2431 C   0  0  0  0  0  0  0  0  0  0  0  0
    3.1947    2.2456   -0.6497 C   0  0  0  0  0  0  0  0  0  0  0  0
    3.0902   -0.1858    0.0847 C   0  0  0  0  0  0  0  0  0  0  0  0
    1.5081   -0.1222    0.0347 B   0  0  0  0  0  0  0  0  0  0  0  0
    0.6902    0.3075    1.3040 C   0  0  0  0  0  0  0  0  0  0  0  0
    1.3448    0.6418    2.5036 C   0  0  0  0  0  0  0  0  0  0  0  0
    0.6301    1.0265    3.6446 C   0  0  0  0  0  0  0  0  0  0  0  0
   -0.7641    1.0834    3.6014 C   0  0  0  0  0  0  0  0  0  0  0  0
   -1.4358    0.7554    2.4173 C   0  0  0  0  0  0  0  0  0  0  0  0
   -0.7374    0.3663    1.2596 C   0  0  0  0  0  0  0  0  0  0  0  0
   -1.5086    0.0026   -0.0582 B   0  0  0  0  0  0  0  0  0  0  0  0
   -3.0908    0.0654   -0.1060 C   0  0  0  0  0  0  0  0  0  0  0  0
   -3.7505    1.2634   -0.4733 C   0  0  0  0  0  0  0  0  0  0  0  0
   -2.9521    2.4992   -0.8275 C   0  0  0  0  0  0  0  0  0  0  0  0
   -5.1503    1.3053   -0.5205 C   0  0  0  0  0  0  0  0  0  0  0  0
   -5.9125    0.1790   -0.1919 C   0  0  0  0  0  0  0  0  0  0  0  0
   -7.3340    0.2358   -0.2359 N   0  0  0  0  0  0  0  0  0  0  0  0
   -8.1408    1.0950    0.5137 C   0  0  0  0  0  0  0  0  0  0  0  0
   -7.7756    2.0536    1.4681 C   0  0  0  0  0  0  0  0  0  0  0  0
   -8.7951    2.7733    2.0924 C   0  0  0  0  0  0  0  0  0  0  0  0
  -10.1498    2.5477    1.7818 C   0  0  0  0  0  0  0  0  0  0  0  0
  -10.5097    1.5863    0.8385 C   0  0  0  0  0  0  0  0  0  0  0  0
   -9.5049    0.8476    0.1964 C   0  0  0  0  0  0  0  0  0  0  0  0
   -9.5164   -0.2109   -0.7942 C   0  0  0  0  0  0  0  0  0  0  0  0
  -10.5355   -0.8729   -1.4948 C   0  0  0  0  0  0  0  0  0  0  0  0
  -10.1956   -1.8617   -2.4169 C   0  0  0  0  0  0  0  0  0  0  0  0
   -8.8462   -2.1903   -2.6488 C   0  0  0  0  0  0  0  0  0  0  0  0
   -7.8129   -1.5481   -1.9655 C   0  0  0  0  0  0  0  0  0  0  0  0
   -8.1589   -0.5617   -1.0325 C   0  0  0  0  0  0  0  0  0  0  0  0
   -5.2645   -1.0039    0.1798 C   0  0  0  0  0  0  0  0  0  0  0  0
   -3.8656   -1.0746    0.2187 C   0  0  0  0  0  0  0  0  0  0  0  0
   -3.1922   -2.3677    0.6235 C   0  0  0  0  0  0  0  0  0  0  0  0
   -0.6907   -0.4256   -1.3278 C   0  0  0  0  0  0  0  0  0  0  0  0
   -1.3453   -0.7572   -2.5281 C   0  0  0  0  0  0  0  0  0  0  0  0
   -0.6307   -1.1431   -3.6688 C   0  0  0  0  0  0  0  0  0  0  0  0
    0.7633   -1.2044   -3.6243 C   0  0  0  0  0  0  0  0  0  0  0  0
    1.4349   -0.8782   -2.4398 C   0  0  0  0  0  0  0  0  0  0  0  0
    0.7367   -0.4868   -1.2827 C   0  0  0  0  0  0  0  0  0  0  0  0
    2.2633   -2.4303    1.6520 H   0  0  0  0  0  0  0  0  0  0  0  0
    3.6021   -3.4575    1.0913 H   0  0  0  0  0  0  0  0  0  0  0  0
    2.3280   -2.9487   -0.0397 H   0  0  0  0  0  0  0  0  0  0  0  0
    5.6563   -2.3574    0.7660 H   0  0  0  0  0  0  0  0  0  0  0  0
    6.6170   -1.0408    2.9213 H   0  0  0  0  0  0  0  0  0  0  0  0
    8.3539   -1.5379    4.6323 H   0  0  0  0  0  0  0  0  0  0  0  0
   10.7706   -1.4573    4.0616 H   0  0  0  0  0  0  0  0  0  0  0  0
   11.5047   -0.8563    1.7562 H   0  0  0  0  0  0  0  0  0  0  0  0
   11.6384   -0.1351   -0.9316 H   0  0  0  0  0  0  0  0  0  0  0  0
   11.1363    0.5070   -3.2872 H   0  0  0  0  0  0  0  0  0  0  0  0
    8.7846    0.7480   -4.0524 H   0  0  0  0  0  0  0  0  0  0  0  0
    6.8851    0.3741   -2.4894 H   0  0  0  0  0  0  0  0  0  0  0  0
    5.8622    1.7730   -0.4090 H   0  0  0  0  0  0  0  0  0  0  0  0
    2.5850    2.1130   -1.5593 H   0  0  0  0  0  0  0  0  0  0  0  0
    3.9292    3.0383   -0.8533 H   0  0  0  0  0  0  0  0  0  0  0  0
    2.5156    2.6128    0.1378 H   0  0  0  0  0  0  0  0  0  0  0  0
    2.4367    0.6011    2.5461 H   0  0  0  0  0  0  0  0  0  0  0  0
    1.1622    1.2815    4.5651 H   0  0  0  0  0  0  0  0  0  0  0  0
   -1.3296    1.3827    4.4881 H   0  0  0  0  0  0  0  0  0  0  0  0
   -2.5280    0.8028    2.3922 H   0  0  0  0  0  0  0  0  0  0  0  0
   -3.6049    3.3340   -1.1212 H   0  0  0  0  0  0  0  0  0  0  0  0
   -2.3379    2.8384    0.0237 H   0  0  0  0  0  0  0  0  0  0  0  0
   -2.2588    2.3064   -1.6632 H   0  0  0  0  0  0  0  0  0  0  0  0
   -5.6592    2.2230   -0.8245 H   0  0  0  0  0  0  0  0  0  0  0  0
   -6.7285    2.2308    1.7183 H   0  0  0  0  0  0  0  0  0  0  0  0
   -8.5338    3.5268    2.8400 H   0  0  0  0  0  0  0  0  0  0  0  0
  -10.9234    3.1297    2.2883 H   0  0  0  0  0  0  0  0  0  0  0  0
  -11.5622    1.4072    0.6039 H   0  0  0  0  0  0  0  0  0  0  0  0
  -11.5831   -0.6136   -1.3215 H   0  0  0  0  0  0  0  0  0  0  0  0
  -10.9805   -2.3850   -2.9681 H   0  0  0  0  0  0  0  0  0  0  0  0
   -8.6000   -2.9638   -3.3809 H   0  0  0  0  0  0  0  0  0  0  0  0
   -6.7696   -1.8053   -2.1546 H   0  0  0  0  0  0  0  0  0  0  0  0
   -5.8630   -1.8771    0.4497 H   0  0  0  0  0  0  0  0  0  0  0  0
   -2.5661   -2.2319    1.5213 H   0  0  0  0  0  0  0  0  0  0  0  0
   -2.5285   -2.7430   -0.1734 H   0  0  0  0  0  0  0  0  0  0  0  0
   -3.9264   -3.1557    0.8452 H   0  0  0  0  0  0  0  0  0  0  0  0
   -2.4370   -0.7127   -2.5716 H   0  0  0  0  0  0  0  0  0  0  0  0
   -1.1627   -1.3956   -4.5901 H   0  0  0  0  0  0  0  0  0  0  0  0
    1.3287   -1.5057   -4.5105 H   0  0  0  0  0  0  0  0  0  0  0  0
    2.5270   -0.9293   -2.4135 H   0  0  0  0  0  0  0  0  0  0  0  0
  1  2  1  0
  1 57  1  0
  1 58  1  0
  1 59  1  0
  2  3  2  0
  2 21  1  0
  3  4  1  0
  3 60  1  0
  4  5  1  0
  4 18  2  0
  5  6  1  0
  5 17  1  0
  6  7  2  0
  6 11  1  0
  7  8  1  0
  7 61  1  0
  8  9  2  0
  8 62  1  0
  9 10  1  0
  9 63  1  0
 10 11  2  0
 10 64  1  0
 11 12  1  0
 12 13  1  0
 12 17  2  0
 13 14  2  0
 13 65  1  0
 14 15  1  0
 14 66  1  0
 15 16  2  0
 15 67  1  0
 16 17  1  0
 16 68  1  0
 18 19  1  0
 18 69  1  0
 19 20  1  0
 19 21  2  0
 20 70  1  0
 20 71  1  0
 20 72  1  0
 21 22  1  0
 22 23  1  0
 22 56  1  0
 23 24  2  0
 23 28  1  0
 24 25  1  0
 24 73  1  0
 25 26  2  0
 25 74  1  0
 26 27  1  0
 26 75  1  0
 27 28  2  0
 27 76  1  0
 28 29  1  0
 29 30  1  0
 29 51  1  0
 30 31  2  0
 30 49  1  0
 31 32  1  0
 31 33  1  0
 32 77  1  0
 32 78  1  0
 32 79  1  0
 33 34  2  0
 33 80  1  0
 34 35  1  0
 34 48  1  0
 35 36  1  0
 35 47  1  0
 36 37  2  0
 36 41  1  0
 37 38  1  0
 37 81  1  0
 38 39  2  0
 38 82  1  0
 39 40  1  0
 39 83  1  0
 40 41  2  0
 40 84  1  0
 41 42  1  0
 42 43  1  0
 42 47  2  0
 43 44  2  0
 43 85  1  0
 44 45  1  0
 44 86  1  0
 45 46  2  0
 45 87  1  0
 46 47  1  0
 46 88  1  0
 48 49  2  0
 48 89  1  0
 49 50  1  0
 50 90  1  0
 50 91  1  0
 50 92  1  0
 51 52  1  0
 51 56  2  0
 52 53  2  0
 52 93  1  0
 53 54  1  0
 53 94  1  0
 54 55  2  0
 54 95  1  0
 55 56  1  0
 55 96  1  0
M  END

