
     RDKit          3D

 65 69  0  0  0  0  0  0  0  0999 V2000
    6.0210    4.6597   -3.8761 C   0  0  0  0  0  0  0  0  0  0  0  0
    6.1886    3.1865   -3.6089 C   0  0  0  0  0  0  0  0  0  0  0  0
    7.2197    2.4408   -4.2250 C   0  0  0  0  0  0  0  0  0  0  0  0
    7.4013    1.0886   -3.9865 C   0  0  0  0  0  0  0  0  0  0  0  0
    6.4952    0.4004   -3.1181 C   0  0  0  0  0  0  0  0  0  0  0  0
    6.8214   -1.1982   -2.6391 S   0  0  1  0  0  0  0  0  0  0  0  0
    5.6385   -1.8336   -2.0251 O   0  0  0  0  0  0  0  0  0  0  0  0
    7.6212   -1.9152   -3.6573 O   0  0  0  0  0  0  0  0  0  0  0  0
    7.9895   -1.3243   -1.0565 N   0  0  0  0  0  0  0  0  0  0  0  0
    9.2761   -1.7743   -1.2640 C   0  0  0  0  0  0  0  0  0  0  0  0
   10.3629   -0.9215   -1.6193 C   0  0  0  0  0  0  0  0  0  0  0  0
   10.4683    0.4979   -1.6600 C   0  0  0  0  0  0  0  0  0  0  0  0
    9.4831    1.4026   -1.3530 C   0  0  0  0  0  0  0  0  0  0  0  0
    9.6416    2.8462   -1.2823 C   0  0  0  0  0  0  0  0  0  0  0  0
    8.5367    3.6241   -0.8644 C   0  0  0  0  0  0  0  0  0  0  0  0
    8.6330    5.0102   -0.7520 C   0  0  0  0  0  0  0  0  0  0  0  0
    9.8316    5.6597   -1.0645 C   0  0  0  0  0  0  0  0  0  0  0  0
   10.9366    4.9069   -1.4872 C   0  0  0  0  0  0  0  0  0  0  0  0
   10.8459    3.5226   -1.5924 C   0  0  0  0  0  0  0  0  0  0  0  0
   11.8223   -1.8475   -1.9005 S   0  0  0  0  0  0  0  0  0  0  0  0
   11.0347   -3.3542   -1.4687 C   0  0  0  0  0  0  0  0  0  0  0  0
   11.7737   -4.5653   -1.5950 C   0  0  0  0  0  0  0  0  0  0  0  0
   13.1110   -4.6971   -2.0026 C   0  0  0  0  0  0  0  0  0  0  0  0
   13.5799   -6.0111   -2.0738 C   0  0  0  0  0  0  0  0  0  0  0  0
   12.5950   -6.9548   -1.7309 C   0  0  0  0  0  0  0  0  0  0  0  0
   12.7099   -8.3034   -1.7106 N   0  0  0  0  0  0  0  0  0  0  0  0
   11.6250   -9.1318   -1.2050 C   0  0  0  0  0  0  0  0  0  0  0  0
   14.0080   -8.9048   -1.9798 C   0  0  0  0  0  0  0  0  0  0  0  0
   11.0885   -6.1687   -1.2904 S   0  0  0  0  0  0  0  0  0  0  0  0
    9.6830   -3.1326   -1.1370 C   0  0  0  0  0  0  0  0  0  0  0  0
    8.7308   -4.1980   -0.7305 C   0  0  0  0  0  0  0  0  0  0  0  0
    7.6712   -4.5896   -1.5680 C   0  0  0  0  0  0  0  0  0  0  0  0
    6.8059   -5.5895   -1.1249 C   0  0  0  0  0  0  0  0  0  0  0  0
    7.0219   -6.1592    0.1337 C   0  0  0  0  0  0  0  0  0  0  0  0
    8.0115   -5.7843    0.9493 N   0  0  0  0  0  0  0  0  0  0  0  0
    8.8341   -4.8248    0.5265 C   0  0  0  0  0  0  0  0  0  0  0  0
    5.4642    1.1435   -2.4582 C   0  0  0  0  0  0  0  0  0  0  0  0
    5.3220    2.4922   -2.7225 C   0  0  0  0  0  0  0  0  0  0  0  0
    6.2947    4.9169   -4.9128 H   0  0  0  0  0  0  0  0  0  0  0  0
    6.6571    5.2812   -3.2176 H   0  0  0  0  0  0  0  0  0  0  0  0
    4.9796    4.9833   -3.7162 H   0  0  0  0  0  0  0  0  0  0  0  0
    7.8946    2.9458   -4.9233 H   0  0  0  0  0  0  0  0  0  0  0  0
    8.1862    0.5277   -4.4942 H   0  0  0  0  0  0  0  0  0  0  0  0
    7.4392   -1.9839   -0.5069 H   0  0  0  0  0  0  0  0  0  0  0  0
   11.4620    0.8787   -1.9177 H   0  0  0  0  0  0  0  0  0  0  0  0
    8.5025    1.0077   -1.0836 H   0  0  0  0  0  0  0  0  0  0  0  0
    7.5947    3.1212   -0.6367 H   0  0  0  0  0  0  0  0  0  0  0  0
    7.7659    5.5888   -0.4237 H   0  0  0  0  0  0  0  0  0  0  0  0
    9.9074    6.7469   -0.9821 H   0  0  0  0  0  0  0  0  0  0  0  0
   11.8757    5.4086   -1.7352 H   0  0  0  0  0  0  0  0  0  0  0  0
   11.7204    2.9585   -1.9234 H   0  0  0  0  0  0  0  0  0  0  0  0
   13.7289   -3.8313   -2.2437 H   0  0  0  0  0  0  0  0  0  0  0  0
   14.5955   -6.2745   -2.3626 H   0  0  0  0  0  0  0  0  0  0  0  0
   10.6597   -8.7855   -1.6062 H   0  0  0  0  0  0  0  0  0  0  0  0
   11.5662   -9.1133   -0.1010 H   0  0  0  0  0  0  0  0  0  0  0  0
   11.7747  -10.1687   -1.5323 H   0  0  0  0  0  0  0  0  0  0  0  0
   14.4133   -8.5428   -2.9378 H   0  0  0  0  0  0  0  0  0  0  0  0
   13.8939   -9.9937   -2.0475 H   0  0  0  0  0  0  0  0  0  0  0  0
   14.7407   -8.6771   -1.1846 H   0  0  0  0  0  0  0  0  0  0  0  0
    7.5319   -4.1014   -2.5351 H   0  0  0  0  0  0  0  0  0  0  0  0
    5.9675   -5.9156   -1.7442 H   0  0  0  0  0  0  0  0  0  0  0  0
    6.3573   -6.9496    0.5031 H   0  0  0  0  0  0  0  0  0  0  0  0
    9.6309   -4.5211    1.2167 H   0  0  0  0  0  0  0  0  0  0  0  0
    4.7753    0.6223   -1.7922 H   0  0  0  0  0  0  0  0  0  0  0  0
    4.5013    3.0387   -2.2465 H   0  0  0  0  0  0  0  0  0  0  0  0
  1  2  1  0
  1 39  1  0
  1 40  1  0
  1 41  1  0
  2  3  2  0
  2 38  1  0
  3  4  1  0
  3 42  1  0
  4  5  2  0
  4 43  1  0
  5  6  1  0
  5 37  1  0
  6  7  2  0
  6  8  2  0
  6  9  1  1
  9 10  1  0
  9 44  1  0
 10 11  2  0
 10 30  1  0
 11 12  1  0
 11 20  1  0
 12 13  2  0
 12 45  1  0
 13 14  1  0
 13 46  1  0
 14 15  2  0
 14 19  1  0
 15 16  1  0
 15 47  1  0
 16 17  2  0
 16 48  1  0
 17 18  1  0
 17 49  1  0
 18 19  2  0
 18 50  1  0
 19 51  1  0
 20 21  1  0
 21 22  1  0
 21 30  2  0
 22 23  2  0
 22 29  1  0
 23 24  1  0
 23 52  1  0
 24 25  2  0
 24 53  1  0
 25 26  1  0
 25 29  1  0
 26 27  1  0
 26 28  1  0
 27 54  1  0
 27 55  1  0
 27 56  1  0
 28 57  1  0
 28 58  1  0
 28 59  1  0
 30 31  1  0
 31 32  2  0
 31 36  1  0
 32 33  1  0
 32 60  1  0
 33 34  2  0
 33 61  1  0
 34 35  1  0
 34 62  1  0
 35 36  2  0
 36 63  1  0
 37 38  2  0
 37 64  1  0
 38 65  1  0
M  END

