
     RDKit          3D

 58 62  0  0  0  0  0  0  0  0999 V2000
    1.0973   -0.3821   -0.3764 C   0  0  0  0  0  0  0  0  0  0  0  0
    0.1409    0.5963   -0.4857 C   0  0  0  0  0  0  0  0  0  0  0  0
   -1.2694    0.3623   -0.2311 C   0  0  0  0  0  0  0  0  0  0  0  0
   -2.2087    1.4107   -0.3647 C   0  0  0  0  0  0  0  0  0  0  0  0
   -3.5074    1.2344   -0.1404 N   0  0  0  0  0  0  0  0  0  0  0  0
   -3.8934    0.0109    0.2210 C   0  0  0  0  0  0  0  0  0  0  0  0
   -2.9699   -1.0429    0.3582 C   0  0  0  0  0  0  0  0  0  0  0  0
   -1.6761   -0.8711    0.1358 N   0  0  0  0  0  0  0  0  0  0  0  0
    2.4990   -0.2397   -0.6057 C   0  0  0  0  0  0  0  0  0  0  0  0
    3.1216    0.9851   -1.0077 C   0  0  0  0  0  0  0  0  0  0  0  0
    4.4729    1.0752   -1.2074 C   0  0  0  0  0  0  0  0  0  0  0  0
    5.3279   -0.0741   -1.0251 C   0  0  0  0  0  0  0  0  0  0  0  0
    6.6567   -0.0107   -1.2214 N   0  0  0  0  0  0  0  0  0  0  0  0
    7.3363    1.2440   -1.4289 C   0  0  0  0  0  0  0  0  0  0  0  0
    7.3060    2.2294   -0.4315 C   0  0  0  0  0  0  0  0  0  0  0  0
    8.0034    3.4262   -0.6168 C   0  0  0  0  0  0  0  0  0  0  0  0
    8.7308    3.6411   -1.7898 C   0  0  0  0  0  0  0  0  0  0  0  0
    8.7679    2.6488   -2.7769 C   0  0  0  0  0  0  0  0  0  0  0  0
    8.0815    1.4478   -2.5982 C   0  0  0  0  0  0  0  0  0  0  0  0
    7.4930   -1.2070   -1.1974 C   0  0  0  0  0  0  0  0  0  0  0  0
    7.6345   -1.9968   -2.3553 C   0  0  0  0  0  0  0  0  0  0  0  0
    8.4382   -3.1251   -2.3286 C   0  0  0  0  0  0  0  0  0  0  0  0
    9.1507   -3.5361   -1.1585 C   0  0  0  0  0  0  0  0  0  0  0  0
    9.9635   -4.7110   -1.1853 C   0  0  0  0  0  0  0  0  0  0  0  0
   10.7027   -5.2402   -0.1358 C   0  0  0  0  0  0  0  0  0  0  0  0
   11.4995   -6.4216   -0.2244 C   0  0  0  0  0  0  0  0  0  0  0  0
   12.2300   -6.9009    0.9080 C   0  0  0  0  0  0  0  0  0  0  0  0
   12.9824   -7.9824    0.8926 N   0  0  0  0  0  0  0  0  0  0  0  0
   13.0451   -8.6549   -0.2812 C   0  0  0  0  0  0  0  0  0  0  0  0
   12.3397   -8.2062   -1.4017 C   0  0  0  0  0  0  0  0  0  0  0  0
   11.5774   -7.1194   -1.4022 N   0  0  0  0  0  0  0  0  0  0  0  0
    8.9809   -2.6993   -0.0046 C   0  0  0  0  0  0  0  0  0  0  0  0
    8.1794   -1.5686   -0.0269 C   0  0  0  0  0  0  0  0  0  0  0  0
    4.7017   -1.3171   -0.6526 C   0  0  0  0  0  0  0  0  0  0  0  0
    3.3495   -1.3785   -0.4440 C   0  0  0  0  0  0  0  0  0  0  0  0
    0.7397   -1.3732   -0.0816 H   0  0  0  0  0  0  0  0  0  0  0  0
    0.4130    1.6141   -0.7767 H   0  0  0  0  0  0  0  0  0  0  0  0
   -1.8803    2.4135   -0.6626 H   0  0  0  0  0  0  0  0  0  0  0  0
   -4.9599   -0.1512    0.4096 H   0  0  0  0  0  0  0  0  0  0  0  0
   -3.3056   -2.0425    0.6561 H   0  0  0  0  0  0  0  0  0  0  0  0
    2.5103    1.8734   -1.1751 H   0  0  0  0  0  0  0  0  0  0  0  0
    4.9104    2.0171   -1.5326 H   0  0  0  0  0  0  0  0  0  0  0  0
    6.7532    2.0496    0.4931 H   0  0  0  0  0  0  0  0  0  0  0  0
    7.9853    4.1873    0.1669 H   0  0  0  0  0  0  0  0  0  0  0  0
    9.2791    4.5753   -1.9314 H   0  0  0  0  0  0  0  0  0  0  0  0
    9.3430    2.8072   -3.6920 H   0  0  0  0  0  0  0  0  0  0  0  0
    8.1281    0.6624   -3.3531 H   0  0  0  0  0  0  0  0  0  0  0  0
    7.0994   -1.7299   -3.2712 H   0  0  0  0  0  0  0  0  0  0  0  0
    8.5310   -3.7334   -3.2322 H   0  0  0  0  0  0  0  0  0  0  0  0
   10.0130   -5.2576   -2.1308 H   0  0  0  0  0  0  0  0  0  0  0  0
   10.6995   -4.7470    0.8414 H   0  0  0  0  0  0  0  0  0  0  0  0
   12.1691   -6.3433    1.8535 H   0  0  0  0  0  0  0  0  0  0  0  0
   13.6641   -9.5570   -0.3207 H   0  0  0  0  0  0  0  0  0  0  0  0
   12.4052   -8.7680   -2.3445 H   0  0  0  0  0  0  0  0  0  0  0  0
    9.5013   -2.9517    0.9206 H   0  0  0  0  0  0  0  0  0  0  0  0
    8.0836   -0.9539    0.8728 H   0  0  0  0  0  0  0  0  0  0  0  0
    5.3271   -2.1982   -0.5295 H   0  0  0  0  0  0  0  0  0  0  0  0
    2.8986   -2.3277   -0.1455 H   0  0  0  0  0  0  0  0  0  0  0  0
  1  2  2  0
  1  9  1  0
  1 36  1  0
  2  3  1  0
  2 37  1  0
  3  4  2  0
  3  8  1  0
  4  5  1  0
  4 38  1  0
  5  6  2  0
  6  7  1  0
  6 39  1  0
  7  8  2  0
  7 40  1  0
  9 10  2  0
  9 35  1  0
 10 11  1  0
 10 41  1  0
 11 12  2  0
 11 42  1  0
 12 13  1  0
 12 34  1  0
 13 14  1  0
 13 20  1  0
 14 15  2  0
 14 19  1  0
 15 16  1  0
 15 43  1  0
 16 17  2  0
 16 44  1  0
 17 18  1  0
 17 45  1  0
 18 19  2  0
 18 46  1  0
 19 47  1  0
 20 21  2  0
 20 33  1  0
 21 22  1  0
 21 48  1  0
 22 23  2  0
 22 49  1  0
 23 24  1  0
 23 32  1  0
 24 25  2  0
 24 50  1  0
 25 26  1  0
 25 51  1  0
 26 27  2  0
 26 31  1  0
 27 28  1  0
 27 52  1  0
 28 29  2  0
 29 30  1  0
 29 53  1  0
 30 31  2  0
 30 54  1  0
 32 33  2  0
 32 55  1  0
 33 56  1  0
 34 35  2  0
 34 57  1  0
 35 58  1  0
M  END

