
     RDKit          3D

 24 24  0  0  0  0  0  0  0  0999 V2000
    1.2035   -0.0280   -0.4250 C   0  0  0  0  0  0  0  0  0  0  0  0
    2.5150    0.0036    0.1222 O   0  0  0  0  0  0  0  0  0  0  0  0
    3.0964    1.1454    0.4902 C   0  0  0  0  0  0  0  0  0  0  0  0
    2.4713    2.4222    0.3771 C   0  0  0  0  0  0  0  0  0  0  0  0
    3.1287    3.5947    0.7781 C   0  0  0  0  0  0  0  0  0  0  0  0
    2.5403    4.9203    0.6866 C   0  0  0  0  0  0  0  0  0  0  0  0
    1.2784    5.2298    0.2005 C   0  0  0  0  0  0  0  0  0  0  0  0
    0.8123    6.6102    0.1688 C   0  0  0  0  0  0  0  0  0  0  0  0
    1.4528    7.5746    0.5485 O   0  0  0  0  0  0  0  0  0  0  0  0
   -0.4542    6.8118   -0.3348 O   0  0  0  0  0  0  0  0  0  0  0  0
    4.4617    3.4204    1.3049 C   0  0  0  0  0  0  0  0  0  0  0  0
    5.0782    2.1790    1.4194 C   0  0  0  0  0  0  0  0  0  0  0  0
    4.4211    1.0097    1.0195 C   0  0  0  0  0  0  0  0  0  0  0  0
    4.9431   -0.2337    1.0950 O   0  0  0  0  0  0  0  0  0  0  0  0
    0.9885   -1.0830   -0.6314 H   0  0  0  0  0  0  0  0  0  0  0  0
    1.1548    0.5515   -1.3605 H   0  0  0  0  0  0  0  0  0  0  0  0
    0.4685    0.3676    0.2938 H   0  0  0  0  0  0  0  0  0  0  0  0
    1.4633    2.4816   -0.0283 H   0  0  0  0  0  0  0  0  0  0  0  0
    3.1444    5.7621    1.0331 H   0  0  0  0  0  0  0  0  0  0  0  0
    0.6082    4.4449   -0.1687 H   0  0  0  0  0  0  0  0  0  0  0  0
   -0.8360    5.9636   -0.5953 H   0  0  0  0  0  0  0  0  0  0  0  0
    5.0039    4.3131    1.6267 H   0  0  0  0  0  0  0  0  0  0  0  0
    6.0913    2.1109    1.8273 H   0  0  0  0  0  0  0  0  0  0  0  0
    5.8350   -0.1863    1.4671 H   0  0  0  0  0  0  0  0  0  0  0  0
  1  2  1  0
  1 15  1  0
  1 16  1  0
  1 17  1  0
  2  3  1  0
  3  4  2  0
  3 13  1  0
  4  5  1  0
  4 18  1  0
  5  6  1  0
  5 11  2  0
  6  7  2  0
  6 19  1  0
  7  8  1  0
  7 20  1  0
  8  9  2  0
  8 10  1  0
 10 21  1  0
 11 12  1  0
 11 22  1  0
 12 13  2  0
 12 23  1  0
 13 14  1  0
 14 24  1  0
M  END

