
     RDKit          3D

 86 91  0  0  0  0  0  0  0  0999 V2000
    4.3899    2.1298    2.4444 C   0  0  0  0  0  0  0  0  0  0  0  0
    4.1759    1.1277    1.3090 C   0  0  0  0  0  0  0  0  0  0  0  0
    4.6566    1.6413   -0.0527 C   0  0  0  0  0  0  0  0  0  0  0  0
    4.4184    0.6364   -1.1826 C   0  0  0  0  0  0  0  0  0  0  0  0
    4.9544    1.0821   -2.5762 C   0  0  2  0  0  0  0  0  0  0  0  0
    4.6684    0.0475   -3.6958 C   0  0  0  0  0  0  0  0  0  0  0  0
    4.2426   -1.2652   -3.4399 C   0  0  0  0  0  0  0  0  0  0  0  0
    4.0673   -2.1808   -4.4864 C   0  0  0  0  0  0  0  0  0  0  0  0
    4.3206   -1.8038   -5.8049 C   0  0  0  0  0  0  0  0  0  0  0  0
    4.7486   -0.4962   -6.0724 C   0  0  0  0  0  0  0  0  0  0  0  0
    4.9181    0.4150   -5.0313 C   0  0  0  0  0  0  0  0  0  0  0  0
    6.4203    1.0966   -2.4727 N   0  0  0  0  0  0  0  0  0  0  0  0
    7.2585    2.1391   -2.7054 C   0  0  0  0  0  0  0  0  0  0  0  0
    8.6776    1.9554   -2.7045 C   0  0  0  0  0  0  0  0  0  0  0  0
    9.3093    0.6350   -2.7098 C   0  0  0  0  0  0  0  0  0  0  0  0
    8.7996   -0.4630   -3.4516 C   0  0  0  0  0  0  0  0  0  0  0  0
    9.4308   -1.6969   -3.4751 C   0  0  0  0  0  0  0  0  0  0  0  0
   10.6280   -1.9274   -2.7439 C   0  0  0  0  0  0  0  0  0  0  0  0
   11.2490   -3.1532   -2.7472 N   0  0  0  0  0  0  0  0  0  0  0  0
   12.4978   -3.3426   -2.0315 C   0  0  0  0  0  0  0  0  0  0  0  0
   10.6873   -4.2548   -3.5082 C   0  0  0  0  0  0  0  0  0  0  0  0
   11.1577   -0.8262   -2.0150 C   0  0  0  0  0  0  0  0  0  0  0  0
   10.5225    0.4043   -2.0124 C   0  0  0  0  0  0  0  0  0  0  0  0
    9.4840    3.1288   -2.7151 C   0  0  0  0  0  0  0  0  0  0  0  0
    8.8983    4.3691   -2.8252 C   0  0  0  0  0  0  0  0  0  0  0  0
    7.4763    4.5616   -2.9037 C   0  0  0  0  0  0  0  0  0  0  0  0
    6.9706    5.9467   -2.9768 C   0  0  0  0  0  0  0  0  0  0  0  0
    7.7109    6.9600   -3.6260 C   0  0  0  0  0  0  0  0  0  0  0  0
    7.2754    8.2780   -3.6939 C   0  0  0  0  0  0  0  0  0  0  0  0
    6.0558    8.6760   -3.0897 C   0  0  0  0  0  0  0  0  0  0  0  0
    5.6128    9.9833   -3.1459 N   0  0  0  0  0  0  0  0  0  0  0  0
    4.3631   10.3554   -2.5146 C   0  0  0  0  0  0  0  0  0  0  0  0
    6.4009   10.9886   -3.8272 C   0  0  0  0  0  0  0  0  0  0  0  0
    5.3121    7.6666   -2.4254 C   0  0  0  0  0  0  0  0  0  0  0  0
    5.7530    6.3509   -2.3834 C   0  0  0  0  0  0  0  0  0  0  0  0
    6.6355    3.4272   -2.8799 C   0  0  0  0  0  0  0  0  0  0  0  0
    5.2789    3.5275   -3.0051 N   0  0  0  0  0  0  0  0  0  0  0  0
    4.4475    2.4847   -2.9497 C   0  0  0  0  0  0  0  0  0  0  0  0
    3.0390    2.7136   -3.2047 C   0  0  0  0  0  0  0  0  0  0  0  0
    2.5963    4.0463   -3.4842 C   0  0  0  0  0  0  0  0  0  0  0  0
    1.2604    4.3393   -3.7156 C   0  0  0  0  0  0  0  0  0  0  0  0
    0.2801    3.3319   -3.6905 C   0  0  0  0  0  0  0  0  0  0  0  0
    0.6888    2.0145   -3.4399 C   0  0  0  0  0  0  0  0  0  0  0  0
    2.0262    1.7058   -3.2085 C   0  0  0  0  0  0  0  0  0  0  0  0
    4.0351    1.7322    3.4090 H   0  0  0  0  0  0  0  0  0  0  0  0
    3.8489    3.0712    2.2521 H   0  0  0  0  0  0  0  0  0  0  0  0
    5.4573    2.3830    2.5597 H   0  0  0  0  0  0  0  0  0  0  0  0
    3.1029    0.8712    1.2428 H   0  0  0  0  0  0  0  0  0  0  0  0
    4.6954    0.1815    1.5504 H   0  0  0  0  0  0  0  0  0  0  0  0
    5.7314    1.8867    0.0101 H   0  0  0  0  0  0  0  0  0  0  0  0
    4.1407    2.5859   -0.2909 H   0  0  0  0  0  0  0  0  0  0  0  0
    3.3411    0.4322   -1.2625 H   0  0  0  0  0  0  0  0  0  0  0  0
    4.8975   -0.3231   -0.9140 H   0  0  0  0  0  0  0  0  0  0  0  0
    4.0286   -1.5903   -2.4210 H   0  0  0  0  0  0  0  0  0  0  0  0
    3.7239   -3.1944   -4.2616 H   0  0  0  0  0  0  0  0  0  0  0  0
    4.1777   -2.5164   -6.6214 H   0  0  0  0  0  0  0  0  0  0  0  0
    4.9405   -0.1819   -7.1018 H   0  0  0  0  0  0  0  0  0  0  0  0
    5.2307    1.4387   -5.2519 H   0  0  0  0  0  0  0  0  0  0  0  0
    6.8334    0.2058   -2.2205 H   0  0  0  0  0  0  0  0  0  0  0  0
    7.9090   -0.3298   -4.0685 H   0  0  0  0  0  0  0  0  0  0  0  0
    8.9974   -2.4857   -4.0883 H   0  0  0  0  0  0  0  0  0  0  0  0
   13.2993   -2.6849   -2.4136 H   0  0  0  0  0  0  0  0  0  0  0  0
   12.8299   -4.3814   -2.1479 H   0  0  0  0  0  0  0  0  0  0  0  0
   12.3863   -3.1435   -0.9509 H   0  0  0  0  0  0  0  0  0  0  0  0
    9.6548   -4.4847   -3.1924 H   0  0  0  0  0  0  0  0  0  0  0  0
   11.2949   -5.1540   -3.3490 H   0  0  0  0  0  0  0  0  0  0  0  0
   10.6680   -4.0452   -4.5933 H   0  0  0  0  0  0  0  0  0  0  0  0
   12.0724   -0.9395   -1.4345 H   0  0  0  0  0  0  0  0  0  0  0  0
   10.9551    1.2132   -1.4204 H   0  0  0  0  0  0  0  0  0  0  0  0
   10.5708    3.0363   -2.7129 H   0  0  0  0  0  0  0  0  0  0  0  0
    9.5404    5.2509   -2.8452 H   0  0  0  0  0  0  0  0  0  0  0  0
    8.6474    6.7071   -4.1282 H   0  0  0  0  0  0  0  0  0  0  0  0
    7.8887    9.0009   -4.2308 H   0  0  0  0  0  0  0  0  0  0  0  0
    4.3762   10.1758   -1.4234 H   0  0  0  0  0  0  0  0  0  0  0  0
    3.5041    9.7980   -2.9310 H   0  0  0  0  0  0  0  0  0  0  0  0
    4.1777   11.4252   -2.6754 H   0  0  0  0  0  0  0  0  0  0  0  0
    7.4037   11.1110   -3.3763 H   0  0  0  0  0  0  0  0  0  0  0  0
    5.8877   11.9571   -3.7686 H   0  0  0  0  0  0  0  0  0  0  0  0
    6.5471   10.7498   -4.8971 H   0  0  0  0  0  0  0  0  0  0  0  0
    4.3695    7.9092   -1.9358 H   0  0  0  0  0  0  0  0  0  0  0  0
    5.1453    5.6043   -1.8763 H   0  0  0  0  0  0  0  0  0  0  0  0
    3.3495    4.8324   -3.5192 H   0  0  0  0  0  0  0  0  0  0  0  0
    0.9699    5.3737   -3.9249 H   0  0  0  0  0  0  0  0  0  0  0  0
   -0.7713    3.5669   -3.8722 H   0  0  0  0  0  0  0  0  0  0  0  0
   -0.0494    1.2067   -3.4344 H   0  0  0  0  0  0  0  0  0  0  0  0
    2.2848    0.6594   -3.0584 H   0  0  0  0  0  0  0  0  0  0  0  0
  1  2  1  0
  1 45  1  0
  1 46  1  0
  1 47  1  0
  2  3  1  0
  2 48  1  0
  2 49  1  0
  3  4  1  0
  3 50  1  0
  3 51  1  0
  5  4  1  1
  4 52  1  0
  4 53  1  0
  5  6  1  0
  5 12  1  0
  5 38  1  0
  6  7  2  0
  6 11  1  0
  7  8  1  0
  7 54  1  0
  8  9  2  0
  8 55  1  0
  9 10  1  0
  9 56  1  0
 10 11  2  0
 10 57  1  0
 11 58  1  0
 12 13  1  0
 12 59  1  0
 13 14  2  0
 13 36  1  0
 14 15  1  0
 14 24  1  0
 15 16  2  0
 15 23  1  0
 16 17  1  0
 16 60  1  0
 17 18  2  0
 17 61  1  0
 18 19  1  0
 18 22  1  0
 19 20  1  0
 19 21  1  0
 20 62  1  0
 20 63  1  0
 20 64  1  0
 21 65  1  0
 21 66  1  0
 21 67  1  0
 22 23  2  0
 22 68  1  0
 23 69  1  0
 24 25  2  0
 24 70  1  0
 25 26  1  0
 25 71  1  0
 26 27  1  0
 26 36  2  0
 27 28  2  0
 27 35  1  0
 28 29  1  0
 28 72  1  0
 29 30  2  0
 29 73  1  0
 30 31  1  0
 30 34  1  0
 31 32  1  0
 31 33  1  0
 32 74  1  0
 32 75  1  0
 32 76  1  0
 33 77  1  0
 33 78  1  0
 33 79  1  0
 34 35  2  0
 34 80  1  0
 35 81  1  0
 36 37  1  0
 37 38  2  0
 38 39  1  0
 39 40  2  0
 39 44  1  0
 40 41  1  0
 40 82  1  0
 41 42  2  0
 41 83  1  0
 42 43  1  0
 42 84  1  0
 43 44  2  0
 43 85  1  0
 44 86  1  0
M  END

