
     RDKit          3D

 41 44  0  0  0  0  0  0  0  0999 V2000
    4.2616    0.8182   -1.5950 C   0  0  0  0  0  0  0  0  0  0  0  0
    5.0188    0.9159   -0.2808 C   0  0  0  0  0  0  0  0  0  0  0  0
    5.5303   -0.3621    0.1376 O   0  0  0  0  0  0  0  0  0  0  0  0
    4.6738   -1.1720    0.8435 C   0  0  0  0  0  0  0  0  0  0  0  0
    3.5424   -0.8376    1.1251 O   0  0  0  0  0  0  0  0  0  0  0  0
    5.2838   -2.4311    1.2095 C   0  0  0  0  0  0  0  0  0  0  0  0
    6.5873   -2.8308    1.0058 C   0  0  0  0  0  0  0  0  0  0  0  0
    7.6016   -2.2274    0.3755 N   0  0  0  0  0  0  0  0  0  0  0  0
    6.7952   -4.0869    1.6094 N   0  0  0  0  0  0  0  0  0  0  0  0
    7.9723   -4.8103    1.6707 C   0  0  0  0  0  0  0  0  0  0  0  0
    8.9846   -4.4372    1.0831 O   0  0  0  0  0  0  0  0  0  0  0  0
    7.9036   -6.0227    2.5164 C   0  0  0  0  0  0  0  0  0  0  0  0
    9.0418   -6.8379    2.6242 C   0  0  0  0  0  0  0  0  0  0  0  0
    9.0092   -7.9666    3.4381 C   0  0  0  0  0  0  0  0  0  0  0  0
    7.8455   -8.2874    4.1553 C   0  0  0  0  0  0  0  0  0  0  0  0
    6.7143   -7.4809    4.0565 C   0  0  0  0  0  0  0  0  0  0  0  0
    6.7353   -6.3457    3.2344 C   0  0  0  0  0  0  0  0  0  0  0  0
    5.5085   -5.5077    3.1339 C   0  0  0  0  0  0  0  0  0  0  0  0
    4.4752   -5.7247    3.7482 O   0  0  0  0  0  0  0  0  0  0  0  0
    5.6097   -4.4591    2.2572 N   0  0  0  0  0  0  0  0  0  0  0  0
    4.5120   -3.5168    1.9267 C   0  0  2  0  0  0  0  0  0  0  0  0
    3.4183   -4.1699    1.1124 C   0  0  0  0  0  0  0  0  0  0  0  0
    2.2602   -4.7515    1.5679 C   0  0  0  0  0  0  0  0  0  0  0  0
    1.4712   -5.3174    0.5221 C   0  0  0  0  0  0  0  0  0  0  0  0
    2.0458   -5.1629   -0.7146 C   0  0  0  0  0  0  0  0  0  0  0  0
    3.5509   -4.3173   -0.6212 S   0  0  0  0  0  0  0  0  0  0  0  0
    3.9383    1.8211   -1.9183 H   0  0  0  0  0  0  0  0  0  0  0  0
    3.3669    0.1899   -1.4778 H   0  0  0  0  0  0  0  0  0  0  0  0
    4.8950    0.3890   -2.3874 H   0  0  0  0  0  0  0  0  0  0  0  0
    4.3713    1.3158    0.5130 H   0  0  0  0  0  0  0  0  0  0  0  0
    5.9063    1.5594   -0.3764 H   0  0  0  0  0  0  0  0  0  0  0  0
    7.4020   -1.3302   -0.0507 H   0  0  0  0  0  0  0  0  0  0  0  0
    8.4976   -2.7067    0.3321 H   0  0  0  0  0  0  0  0  0  0  0  0
    9.9353   -6.5603    2.0624 H   0  0  0  0  0  0  0  0  0  0  0  0
    9.8934   -8.6034    3.5209 H   0  0  0  0  0  0  0  0  0  0  0  0
    7.8270   -9.1741    4.7938 H   0  0  0  0  0  0  0  0  0  0  0  0
    5.7950   -7.7042    4.6010 H   0  0  0  0  0  0  0  0  0  0  0  0
    4.0611   -3.1751    2.8726 H   0  0  0  0  0  0  0  0  0  0  0  0
    2.0006   -4.7859    2.6263 H   0  0  0  0  0  0  0  0  0  0  0  0
    0.5142   -5.8171    0.6817 H   0  0  0  0  0  0  0  0  0  0  0  0
    1.6618   -5.4874   -1.6809 H   0  0  0  0  0  0  0  0  0  0  0  0
  1  2  1  0
  1 27  1  0
  1 28  1  0
  1 29  1  0
  2  3  1  0
  2 30  1  0
  2 31  1  0
  3  4  1  0
  4  5  2  0
  4  6  1  0
  6  7  2  0
  6 21  1  0
  7  8  1  0
  7  9  1  0
  8 32  1  0
  8 33  1  0
  9 10  1  0
  9 20  1  0
 10 11  2  0
 10 12  1  0
 12 13  2  0
 12 17  1  0
 13 14  1  0
 13 34  1  0
 14 15  2  0
 14 35  1  0
 15 16  1  0
 15 36  1  0
 16 17  2  0
 16 37  1  0
 17 18  1  0
 18 19  2  0
 18 20  1  0
 20 21  1  0
 21 22  1  0
 21 38  1  1
 22 23  2  0
 22 26  1  0
 23 24  1  0
 23 39  1  0
 24 25  2  0
 24 40  1  0
 25 26  1  0
 25 41  1  0
M  END

