
     RDKit          3D

 34 38  0  0  0  0  0  0  0  0999 V2000
    1.1656    0.0566   -0.2963 Br  0  0  0  0  0  0  0  0  0  0  0  0
    3.0564    0.0975   -0.0926 C   0  0  0  0  0  0  0  0  0  0  0  0
    3.7220    1.3533    0.0382 C   0  0  0  0  0  0  0  0  0  0  0  0
    5.0863    1.3615    0.1629 C   0  0  0  0  0  0  0  0  0  0  0  0
    5.8240    0.1465    0.1673 C   0  0  0  0  0  0  0  0  0  0  0  0
    7.1860   -0.1211    0.2251 C   0  0  0  0  0  0  0  0  0  0  0  0
    7.3384   -1.5219    0.1589 C   0  0  0  0  0  0  0  0  0  0  0  0
    8.5111   -2.3450    0.1052 C   0  0  0  0  0  0  0  0  0  0  0  0
    9.8359   -1.8534    0.1555 C   0  0  0  0  0  0  0  0  0  0  0  0
   10.9111   -2.7207    0.0569 C   0  0  0  0  0  0  0  0  0  0  0  0
   10.6938   -4.1095   -0.0947 C   0  0  0  0  0  0  0  0  0  0  0  0
    9.4077   -4.6138   -0.1389 C   0  0  0  0  0  0  0  0  0  0  0  0
    8.2858   -3.7475   -0.0367 C   0  0  0  0  0  0  0  0  0  0  0  0
    7.0391   -4.2963   -0.0475 N   0  0  0  0  0  0  0  0  0  0  0  0
    5.9441   -3.5612    0.0376 C   0  0  0  0  0  0  0  0  0  0  0  0
    4.7237   -4.3819    0.0833 C   0  0  0  0  0  0  0  0  0  0  0  0
    4.5472   -5.7014   -0.2622 C   0  0  0  0  0  0  0  0  0  0  0  0
    3.1988   -6.0351    0.0692 C   0  0  0  0  0  0  0  0  0  0  0  0
    2.6469   -4.9039    0.6009 C   0  0  0  0  0  0  0  0  0  0  0  0
    3.5614   -3.8996    0.6150 O   0  0  0  0  0  0  0  0  0  0  0  0
    6.0492   -2.1249    0.0920 C   0  0  0  0  0  0  0  0  0  0  0  0
    5.1179   -1.0785    0.0752 N   0  0  0  0  0  0  0  0  0  0  0  0
    3.7488   -1.0815   -0.0773 C   0  0  0  0  0  0  0  0  0  0  0  0
    3.1464    2.2796    0.0301 H   0  0  0  0  0  0  0  0  0  0  0  0
    5.6388    2.2985    0.2525 H   0  0  0  0  0  0  0  0  0  0  0  0
    7.9684    0.6306    0.2859 H   0  0  0  0  0  0  0  0  0  0  0  0
   10.0072   -0.7802    0.2686 H   0  0  0  0  0  0  0  0  0  0  0  0
   11.9317   -2.3314    0.0946 H   0  0  0  0  0  0  0  0  0  0  0  0
   11.5489   -4.7857   -0.1728 H   0  0  0  0  0  0  0  0  0  0  0  0
    9.2124   -5.6826   -0.2456 H   0  0  0  0  0  0  0  0  0  0  0  0
    5.3158   -6.3391   -0.6884 H   0  0  0  0  0  0  0  0  0  0  0  0
    2.7019   -6.9934   -0.0666 H   0  0  0  0  0  0  0  0  0  0  0  0
    1.6648   -4.6604    0.9974 H   0  0  0  0  0  0  0  0  0  0  0  0
    3.2655   -2.0472   -0.1629 H   0  0  0  0  0  0  0  0  0  0  0  0
  1  2  1  0
  2  3  1  0
  2 23  2  0
  3  4  2  0
  3 24  1  0
  4  5  1  0
  4 25  1  0
  5  6  2  0
  5 22  1  0
  6  7  1  0
  6 26  1  0
  7  8  1  0
  7 21  2  0
  8  9  2  0
  8 13  1  0
  9 10  1  0
  9 27  1  0
 10 11  2  0
 10 28  1  0
 11 12  1  0
 11 29  1  0
 12 13  2  0
 12 30  1  0
 13 14  1  0
 14 15  2  0
 15 16  1  0
 15 21  1  0
 16 17  2  0
 16 20  1  0
 17 18  1  0
 17 31  1  0
 18 19  2  0
 18 32  1  0
 19 20  1  0
 19 33  1  0
 21 22  1  0
 22 23  1  0
 23 34  1  0
M  END

