
     RDKit          3D

 38 40  0  0  0  0  0  0  0  0999 V2000
    1.4653    0.0073   -0.2664 C   0  0  0  0  0  0  0  0  0  0  0  0
    2.8823    0.1160   -0.2068 O   0  0  0  0  0  0  0  0  0  0  0  0
    3.4144    0.3030    1.0467 C   0  0  0  0  0  0  0  0  0  0  0  0
    3.8510   -0.7963    1.7874 C   0  0  0  0  0  0  0  0  0  0  0  0
    3.7685   -2.1381    1.2169 C   0  0  0  0  0  0  0  0  0  0  0  0
    4.0842   -3.1908    1.8889 N   0  0  0  0  0  0  0  0  0  0  0  0
    4.0062   -4.3810    1.2832 N   0  0  0  0  0  0  0  0  0  0  0  0
    4.3142   -5.5657    1.9269 C   0  0  0  0  0  0  0  0  0  0  0  0
    4.7256   -5.5933    3.2756 C   0  0  0  0  0  0  0  0  0  0  0  0
    5.0257   -6.8042    3.8850 C   0  0  0  0  0  0  0  0  0  0  0  0
    4.9257   -8.0195    3.1767 C   0  0  0  0  0  0  0  0  0  0  0  0
    5.2363   -9.2650    3.8135 C   0  0  0  0  0  0  0  0  0  0  0  0
    5.4878  -10.2757    4.3295 N   0  0  0  0  0  0  0  0  0  0  0  0
    4.5136   -7.9861    1.8295 C   0  0  0  0  0  0  0  0  0  0  0  0
    4.2126   -6.7789    1.2136 C   0  0  0  0  0  0  0  0  0  0  0  0
    4.3918   -0.5758    3.0917 C   0  0  0  0  0  0  0  0  0  0  0  0
    4.4882    0.6876    3.6173 C   0  0  0  0  0  0  0  0  0  0  0  0
    4.0759    1.8281    2.8666 C   0  0  0  0  0  0  0  0  0  0  0  0
    4.1885    3.1513    3.3711 C   0  0  0  0  0  0  0  0  0  0  0  0
    3.8024    4.2368    2.6100 C   0  0  0  0  0  0  0  0  0  0  0  0
    3.2938    4.0447    1.3019 C   0  0  0  0  0  0  0  0  0  0  0  0
    3.1664    2.7725    0.7818 C   0  0  0  0  0  0  0  0  0  0  0  0
    3.5389    1.6348    1.5507 C   0  0  0  0  0  0  0  0  0  0  0  0
    1.1962   -0.1069   -1.3259 H   0  0  0  0  0  0  0  0  0  0  0  0
    0.9708    0.9079    0.1372 H   0  0  0  0  0  0  0  0  0  0  0  0
    1.1049   -0.8726    0.2965 H   0  0  0  0  0  0  0  0  0  0  0  0
    3.4393   -2.2105    0.1667 H   0  0  0  0  0  0  0  0  0  0  0  0
    3.7133   -4.4271    0.3055 H   0  0  0  0  0  0  0  0  0  0  0  0
    4.8018   -4.6559    3.8246 H   0  0  0  0  0  0  0  0  0  0  0  0
    5.3439   -6.8182    4.9295 H   0  0  0  0  0  0  0  0  0  0  0  0
    4.4314   -8.9184    1.2674 H   0  0  0  0  0  0  0  0  0  0  0  0
    3.8946   -6.7685    0.1673 H   0  0  0  0  0  0  0  0  0  0  0  0
    4.7270   -1.4456    3.6586 H   0  0  0  0  0  0  0  0  0  0  0  0
    4.8981    0.8371    4.6195 H   0  0  0  0  0  0  0  0  0  0  0  0
    4.5940    3.2969    4.3760 H   0  0  0  0  0  0  0  0  0  0  0  0
    3.8966    5.2488    3.0116 H   0  0  0  0  0  0  0  0  0  0  0  0
    3.0086    4.9112    0.6998 H   0  0  0  0  0  0  0  0  0  0  0  0
    2.7968    2.6218   -0.2335 H   0  0  0  0  0  0  0  0  0  0  0  0
  1  2  1  0
  1 24  1  0
  1 25  1  0
  1 26  1  0
  2  3  1  0
  3  4  2  0
  3 23  1  0
  4  5  1  0
  4 16  1  0
  5  6  2  0
  5 27  1  0
  6  7  1  0
  7  8  1  0
  7 28  1  0
  8  9  2  0
  8 15  1  0
  9 10  1  0
  9 29  1  0
 10 11  2  0
 10 30  1  0
 11 12  1  0
 11 14  1  0
 12 13  3  0
 14 15  2  0
 14 31  1  0
 15 32  1  0
 16 17  2  0
 16 33  1  0
 17 18  1  0
 17 34  1  0
 18 19  1  0
 18 23  2  0
 19 20  2  0
 19 35  1  0
 20 21  1  0
 20 36  1  0
 21 22  2  0
 21 37  1  0
 22 23  1  0
 22 38  1  0
M  END

