
     RDKit          3D

 78 87  0  0  0  0  0  0  0  0999 V2000
    0.7927   -0.6281   -3.7745 C   0  0  0  0  0  0  0  0  0  0  0  0
    0.7524    0.7967   -3.7398 C   0  0  0  0  0  0  0  0  0  0  0  0
    0.5157    1.4626   -2.5625 C   0  0  0  0  0  0  0  0  0  0  0  0
    0.2999    0.7539   -1.3335 C   0  0  0  0  0  0  0  0  0  0  0  0
    0.0557    1.4136   -0.1026 C   0  0  0  0  0  0  0  0  0  0  0  0
    0.0011    2.9102   -0.0564 C   0  0  0  0  0  0  0  0  0  0  0  0
   -1.1347    3.5991   -0.5114 C   0  0  0  0  0  0  0  0  0  0  0  0
   -1.1975    5.0012   -0.4791 C   0  0  0  0  0  0  0  0  0  0  0  0
   -2.4172    5.7223   -0.9667 C   0  0  0  0  0  0  0  0  0  0  0  0
   -3.5623    5.8129   -0.1363 C   0  0  0  0  0  0  0  0  0  0  0  0
   -3.6099    5.2452    1.1809 C   0  0  0  0  0  0  0  0  0  0  0  0
   -4.7321    5.3518    1.9649 C   0  0  0  0  0  0  0  0  0  0  0  0
   -5.8896    6.0354    1.4895 C   0  0  0  0  0  0  0  0  0  0  0  0
   -5.8880    6.5977    0.2387 C   0  0  0  0  0  0  0  0  0  0  0  0
   -4.7382    6.5112   -0.6114 C   0  0  0  0  0  0  0  0  0  0  0  0
   -4.7263    7.0896   -1.8867 C   0  0  0  0  0  0  0  0  0  0  0  0
   -3.6030    7.0096   -2.7193 C   0  0  0  0  0  0  0  0  0  0  0  0
   -3.5957    7.6000   -4.0244 C   0  0  0  0  0  0  0  0  0  0  0  0
   -2.4946    7.5113   -4.8372 C   0  0  0  0  0  0  0  0  0  0  0  0
   -1.3312    6.8201   -4.3880 C   0  0  0  0  0  0  0  0  0  0  0  0
   -1.2969    6.2413   -3.1433 C   0  0  0  0  0  0  0  0  0  0  0  0
   -2.4221    6.3121   -2.2554 C   0  0  0  0  0  0  0  0  0  0  0  0
   -0.0972    5.7154    0.0209 C   0  0  0  0  0  0  0  0  0  0  0  0
    1.0508    5.0534    0.4850 C   0  0  0  0  0  0  0  0  0  0  0  0
    2.2149    5.8312    1.0189 C   0  0  0  0  0  0  0  0  0  0  0  0
    2.1562    6.3830    2.3236 C   0  0  0  0  0  0  0  0  0  0  0  0
    1.0210    6.2148    3.1852 C   0  0  0  0  0  0  0  0  0  0  0  0
    0.9930    6.7590    4.4455 C   0  0  0  0  0  0  0  0  0  0  0  0
    2.0997    7.5110    4.9381 C   0  0  0  0  0  0  0  0  0  0  0  0
    3.2089    7.6923    4.1523 C   0  0  0  0  0  0  0  0  0  0  0  0
    3.2805    7.1399    2.8324 C   0  0  0  0  0  0  0  0  0  0  0  0
    4.4139    7.3129    2.0284 C   0  0  0  0  0  0  0  0  0  0  0  0
    4.4894    6.7718    0.7389 C   0  0  0  0  0  0  0  0  0  0  0  0
    5.6501    6.9530   -0.0809 C   0  0  0  0  0  0  0  0  0  0  0  0
    5.7140    6.4280   -1.3462 C   0  0  0  0  0  0  0  0  0  0  0  0
    4.6112    5.6900   -1.8678 C   0  0  0  0  0  0  0  0  0  0  0  0
    3.4806    5.4927   -1.1140 C   0  0  0  0  0  0  0  0  0  0  0  0
    3.3696    6.0163    0.2176 C   0  0  0  0  0  0  0  0  0  0  0  0
    1.0861    3.6506    0.4400 C   0  0  0  0  0  0  0  0  0  0  0  0
   -0.1364    0.6614    1.0837 C   0  0  0  0  0  0  0  0  0  0  0  0
   -0.4016    1.2734    2.3543 C   0  0  0  0  0  0  0  0  0  0  0  0
   -0.5864    0.5189    3.4866 C   0  0  0  0  0  0  0  0  0  0  0  0
   -0.5214   -0.9044    3.4314 C   0  0  0  0  0  0  0  0  0  0  0  0
   -0.2770   -1.5331    2.2374 C   0  0  0  0  0  0  0  0  0  0  0  0
   -0.0800   -0.7844    1.0321 C   0  0  0  0  0  0  0  0  0  0  0  0
    0.1603   -1.4204   -0.1921 C   0  0  0  0  0  0  0  0  0  0  0  0
    0.3504   -0.6925   -1.3733 C   0  0  0  0  0  0  0  0  0  0  0  0
    0.5986   -1.3472   -2.6230 C   0  0  0  0  0  0  0  0  0  0  0  0
    0.9811   -1.1415   -4.7207 H   0  0  0  0  0  0  0  0  0  0  0  0
    0.9126    1.3620   -4.6614 H   0  0  0  0  0  0  0  0  0  0  0  0
    0.4882    2.5527   -2.5530 H   0  0  0  0  0  0  0  0  0  0  0  0
   -1.9858    3.0332   -0.8980 H   0  0  0  0  0  0  0  0  0  0  0  0
   -2.7325    4.7187    1.5585 H   0  0  0  0  0  0  0  0  0  0  0  0
   -4.7412    4.9095    2.9644 H   0  0  0  0  0  0  0  0  0  0  0  0
   -6.7743    6.1097    2.1269 H   0  0  0  0  0  0  0  0  0  0  0  0
   -6.7695    7.1266   -0.1342 H   0  0  0  0  0  0  0  0  0  0  0  0
   -5.6165    7.6172   -2.2413 H   0  0  0  0  0  0  0  0  0  0  0  0
   -4.4939    8.1254   -4.3605 H   0  0  0  0  0  0  0  0  0  0  0  0
   -2.5038    7.9667   -5.8306 H   0  0  0  0  0  0  0  0  0  0  0  0
   -0.4596    6.7513   -5.0439 H   0  0  0  0  0  0  0  0  0  0  0  0
   -0.3995    5.7161   -2.8142 H   0  0  0  0  0  0  0  0  0  0  0  0
   -0.1353    6.8070    0.0506 H   0  0  0  0  0  0  0  0  0  0  0  0
    0.1663    5.6420    2.8235 H   0  0  0  0  0  0  0  0  0  0  0  0
    0.1151    6.6151    5.0804 H   0  0  0  0  0  0  0  0  0  0  0  0
    2.0596    7.9381    5.9433 H   0  0  0  0  0  0  0  0  0  0  0  0
    4.0646    8.2641    4.5218 H   0  0  0  0  0  0  0  0  0  0  0  0
    5.2615    7.8846    2.4173 H   0  0  0  0  0  0  0  0  0  0  0  0
    6.4887    7.5238    0.3273 H   0  0  0  0  0  0  0  0  0  0  0  0
    6.6064    6.5743   -1.9600 H   0  0  0  0  0  0  0  0  0  0  0  0
    4.6688    5.2793   -2.8790 H   0  0  0  0  0  0  0  0  0  0  0  0
    2.6457    4.9263   -1.5281 H   0  0  0  0  0  0  0  0  0  0  0  0
    1.9749    3.1251    0.7976 H   0  0  0  0  0  0  0  0  0  0  0  0
   -0.4549    2.3610    2.4135 H   0  0  0  0  0  0  0  0  0  0  0  0
   -0.7865    1.0116    4.4415 H   0  0  0  0  0  0  0  0  0  0  0  0
   -0.6699   -1.4889    4.3428 H   0  0  0  0  0  0  0  0  0  0  0  0
   -0.2292   -2.6242    2.1832 H   0  0  0  0  0  0  0  0  0  0  0  0
    0.2004   -2.5130   -0.2266 H   0  0  0  0  0  0  0  0  0  0  0  0
    0.6310   -2.4401   -2.6378 H   0  0  0  0  0  0  0  0  0  0  0  0
  1  2  2  0
  1 48  1  0
  1 49  1  0
  2  3  1  0
  2 50  1  0
  3  4  2  0
  3 51  1  0
  4  5  1  0
  4 47  1  0
  5  6  1  0
  5 40  2  0
  6  7  2  0
  6 39  1  0
  7  8  1  0
  7 52  1  0
  8  9  1  0
  8 23  2  0
  9 10  1  0
  9 22  2  0
 10 11  2  0
 10 15  1  0
 11 12  1  0
 11 53  1  0
 12 13  2  0
 12 54  1  0
 13 14  1  0
 13 55  1  0
 14 15  2  0
 14 56  1  0
 15 16  1  0
 16 17  2  0
 16 57  1  0
 17 18  1  0
 17 22  1  0
 18 19  2  0
 18 58  1  0
 19 20  1  0
 19 59  1  0
 20 21  2  0
 20 60  1  0
 21 22  1  0
 21 61  1  0
 23 24  1  0
 23 62  1  0
 24 25  1  0
 24 39  2  0
 25 26  1  0
 25 38  2  0
 26 27  2  0
 26 31  1  0
 27 28  1  0
 27 63  1  0
 28 29  2  0
 28 64  1  0
 29 30  1  0
 29 65  1  0
 30 31  2  0
 30 66  1  0
 31 32  1  0
 32 33  2  0
 32 67  1  0
 33 34  1  0
 33 38  1  0
 34 35  2  0
 34 68  1  0
 35 36  1  0
 35 69  1  0
 36 37  2  0
 36 70  1  0
 37 38  1  0
 37 71  1  0
 39 72  1  0
 40 41  1  0
 40 45  1  0
 41 42  2  0
 41 73  1  0
 42 43  1  0
 42 74  1  0
 43 44  2  0
 43 75  1  0
 44 45  1  0
 44 76  1  0
 45 46  2  0
 46 47  1  0
 46 77  1  0
 47 48  2  0
 48 78  1  0
M  END

