
     RDKit          3D

 17 18  0  0  0  0  0  0  0  0999 V2000
    0.9003    0.1181    0.3026 O   0  0  0  0  0  0  0  0  0  0  0  0
    2.0873   -0.0357    0.2016 C   0  0  0  0  0  0  0  0  0  0  0  0
    2.7934   -1.3174    0.1391 C   0  0  0  0  0  0  0  0  0  0  0  0
    4.1413   -1.3836    0.0241 C   0  0  0  0  0  0  0  0  0  0  0  0
    4.9357   -0.1795   -0.0412 C   0  0  0  0  0  0  0  0  0  0  0  0
    6.3402   -0.1629   -0.1614 C   0  0  0  0  0  0  0  0  0  0  0  0
    7.0321    1.0414   -0.2178 C   0  0  0  0  0  0  0  0  0  0  0  0
    6.3264    2.2552   -0.1549 C   0  0  0  0  0  0  0  0  0  0  0  0
    4.9388    2.2674   -0.0362 C   0  0  0  0  0  0  0  0  0  0  0  0
    4.2469    1.0518    0.0202 C   0  0  0  0  0  0  0  0  0  0  0  0
    2.8954    1.0967    0.1357 O   0  0  0  0  0  0  0  0  0  0  0  0
    2.1616   -2.2049    0.1912 H   0  0  0  0  0  0  0  0  0  0  0  0
    4.6484   -2.3520   -0.0213 H   0  0  0  0  0  0  0  0  0  0  0  0
    6.8767   -1.1144   -0.2095 H   0  0  0  0  0  0  0  0  0  0  0  0
    8.1203    1.0454   -0.3107 H   0  0  0  0  0  0  0  0  0  0  0  0
    6.8693    3.2026   -0.1993 H   0  0  0  0  0  0  0  0  0  0  0  0
    4.3712    3.1981    0.0144 H   0  0  0  0  0  0  0  0  0  0  0  0
  1  2  2  0
  2  3  1  0
  2 11  1  0
  3  4  2  0
  3 12  1  0
  4  5  1  0
  4 13  1  0
  5  6  1  0
  5 10  2  0
  6  7  2  0
  6 14  1  0
  7  8  1  0
  7 15  1  0
  8  9  2  0
  8 16  1  0
  9 10  1  0
  9 17  1  0
 10 11  1  0
M  END

