
     RDKit          3D

 36 38  0  0  0  0  0  0  0  0999 V2000
    1.4140   -0.1058    1.0688 C   0  0  0  0  0  0  0  0  0  0  0  0
    2.8445   -0.0390    0.6821 C   0  0  0  0  0  0  0  0  0  0  0  0
    3.6075    1.0495    0.8257 N   0  0  0  0  0  0  0  0  0  0  0  0
    4.8257    0.7670    0.3476 C   0  0  0  0  0  0  0  0  0  0  0  0
    6.0082    1.6069    0.2537 C   0  0  0  0  0  0  0  0  0  0  0  0
    6.2080    2.5137   -0.8624 C   0  0  0  0  0  0  0  0  0  0  0  0
    7.3886    3.2301   -0.9519 C   0  0  0  0  0  0  0  0  0  0  0  0
    7.6153    4.1161   -2.1403 C   0  0  1  0  0  0  0  0  0  0  0  0
    6.4791    4.3992   -2.8171 F   0  0  0  0  0  0  0  0  0  0  0  0
    8.1711    5.3007   -1.8057 F   0  0  0  0  0  0  0  0  0  0  0  0
    8.4579    3.5573   -3.0460 F   0  0  0  0  0  0  0  0  0  0  0  0
    8.4160    3.1195    0.0175 C   0  0  0  0  0  0  0  0  0  0  0  0
    8.2299    2.1856    1.1078 C   0  0  0  0  0  0  0  0  0  0  0  0
    7.0638    1.4618    1.2003 C   0  0  0  0  0  0  0  0  0  0  0  0
    6.8474    0.5159    2.1827 O   0  0  0  0  0  0  0  0  0  0  0  0
    4.8335   -0.5738   -0.1306 N   0  0  0  0  0  0  0  0  0  0  0  0
    3.6317   -1.1126    0.0901 C   0  0  0  0  0  0  0  0  0  0  0  0
    3.2966   -2.5212   -0.2522 C   0  0  0  0  0  0  0  0  0  0  0  0
    4.5614   -3.3560   -0.5147 C   0  0  0  0  0  0  0  0  0  0  0  0
    5.5713   -2.5674   -1.3583 C   0  0  0  0  0  0  0  0  0  0  0  0
    6.0061   -1.2826   -0.6537 C   0  0  0  0  0  0  0  0  0  0  0  0
    1.1319    0.8133    1.5965 H   0  0  0  0  0  0  0  0  0  0  0  0
    1.2108   -0.9776    1.7135 H   0  0  0  0  0  0  0  0  0  0  0  0
    0.7693   -0.2140    0.1780 H   0  0  0  0  0  0  0  0  0  0  0  0
    5.4279    2.6484   -1.6101 H   0  0  0  0  0  0  0  0  0  0  0  0
    9.3231    3.7153   -0.0568 H   0  0  0  0  0  0  0  0  0  0  0  0
    9.0187    2.0348    1.8510 H   0  0  0  0  0  0  0  0  0  0  0  0
    7.5911    0.5479    2.7983 H   0  0  0  0  0  0  0  0  0  0  0  0
    2.6509   -2.5046   -1.1523 H   0  0  0  0  0  0  0  0  0  0  0  0
    2.6712   -2.9588    0.5439 H   0  0  0  0  0  0  0  0  0  0  0  0
    4.2847   -4.2963   -1.0138 H   0  0  0  0  0  0  0  0  0  0  0  0
    5.0227   -3.6328    0.4487 H   0  0  0  0  0  0  0  0  0  0  0  0
    5.1271   -2.3229   -2.3392 H   0  0  0  0  0  0  0  0  0  0  0  0
    6.4658   -3.1749   -1.5615 H   0  0  0  0  0  0  0  0  0  0  0  0
    6.5402   -0.5902   -1.3170 H   0  0  0  0  0  0  0  0  0  0  0  0
    6.6701   -1.4880    0.2006 H   0  0  0  0  0  0  0  0  0  0  0  0
  1  2  1  0
  1 22  1  0
  1 23  1  0
  1 24  1  0
  2  3  1  0
  2 17  2  0
  3  4  2  0
  4  5  1  0
  4 16  1  0
  5  6  2  0
  5 14  1  0
  6  7  1  0
  6 25  1  0
  7  8  1  0
  7 12  2  0
  8  9  1  6
  8 10  1  0
  8 11  1  0
 12 13  1  0
 12 26  1  0
 13 14  2  0
 13 27  1  0
 14 15  1  0
 15 28  1  0
 16 17  1  0
 16 21  1  0
 17 18  1  0
 18 19  1  0
 18 29  1  0
 18 30  1  0
 19 20  1  0
 19 31  1  0
 19 32  1  0
 20 21  1  0
 20 33  1  0
 20 34  1  0
 21 35  1  0
 21 36  1  0
M  END

