
     RDKit          3D

 26 28  0  0  0  0  0  0  0  0999 V2000
    1.1363   -0.1123   -0.0803 C   0  0  0  0  0  0  0  0  0  0  0  0
    2.6157   -0.1574   -0.0801 C   0  0  0  0  0  0  0  0  0  0  0  0
    3.5066   -1.2329   -0.0804 C   0  0  0  0  0  0  0  0  0  0  0  0
    4.8044   -0.6776   -0.0800 C   0  0  0  0  0  0  0  0  0  0  0  0
    4.6294    0.7321   -0.0795 C   0  0  0  0  0  0  0  0  0  0  0  0
    3.2689    1.0211   -0.0795 O   0  0  0  0  0  0  0  0  0  0  0  0
    5.6663    1.6308   -0.0790 C   0  0  0  0  0  0  0  0  0  0  0  0
    5.5031    3.1216   -0.0782 C   0  0  0  0  0  0  0  0  0  0  0  0
    6.9688    1.0134   -0.0790 C   0  0  0  0  0  0  0  0  0  0  0  0
    7.2259   -0.3647   -0.0797 C   0  0  0  0  0  0  0  0  0  0  0  0
    8.5559   -0.9452   -0.0785 C   0  0  0  0  0  0  0  0  0  0  0  0
    8.6842   -2.3431   -0.0794 C   0  0  0  0  0  0  0  0  0  0  0  0
    7.6025   -3.2477   -0.0833 C   0  0  0  0  0  0  0  0  0  0  0  0
    7.5115   -4.4457   -0.0773 O   0  0  0  0  0  0  0  0  0  0  0  0
    6.2196   -2.5614   -0.0807 O   0  0  0  0  0  0  0  0  0  0  0  0
    6.1135   -1.2480   -0.0801 C   0  0  0  0  0  0  0  0  0  0  0  0
    0.7168   -1.1261   -0.0807 H   0  0  0  0  0  0  0  0  0  0  0  0
    0.7655    0.4316   -0.9660 H   0  0  0  0  0  0  0  0  0  0  0  0
    0.7653    0.4310    0.8057 H   0  0  0  0  0  0  0  0  0  0  0  0
    3.2384   -2.2868   -0.0809 H   0  0  0  0  0  0  0  0  0  0  0  0
    4.4437    3.4121   -0.0781 H   0  0  0  0  0  0  0  0  0  0  0  0
    5.9834    3.5716   -0.9638 H   0  0  0  0  0  0  0  0  0  0  0  0
    5.9835    3.5707    0.8077 H   0  0  0  0  0  0  0  0  0  0  0  0
    7.8321    1.6866   -0.0783 H   0  0  0  0  0  0  0  0  0  0  0  0
    9.4324   -0.2989   -0.0761 H   0  0  0  0  0  0  0  0  0  0  0  0
    9.6679   -2.8152   -0.0769 H   0  0  0  0  0  0  0  0  0  0  0  0
  1  2  1  0
  1 17  1  0
  1 18  1  0
  1 19  1  0
  2  3  2  0
  2  6  1  0
  3  4  1  0
  3 20  1  0
  4  5  2  0
  4 16  1  0
  5  6  1  0
  5  7  1  0
  7  8  1  0
  7  9  2  0
  8 21  1  0
  8 22  1  0
  8 23  1  0
  9 10  1  0
  9 24  1  0
 10 11  1  0
 10 16  2  0
 11 12  2  0
 11 25  1  0
 12 13  1  0
 12 26  1  0
 13 14  2  0
 13 15  1  0
 15 16  1  0
M  END

