
     RDKit          3D

 43 46  0  0  0  0  0  0  0  0999 V2000
    1.6107    1.1188    0.3498 C   0  0  0  0  0  0  0  0  0  0  0  0
    2.9401    1.1829   -0.1400 O   0  0  0  0  0  0  0  0  0  0  0  0
    3.2440    0.3934   -1.1928 C   0  0  0  0  0  0  0  0  0  0  0  0
    3.8552    0.7794   -2.3608 C   0  0  0  0  0  0  0  0  0  0  0  0
    4.1664   -0.3040   -3.2205 C   0  0  0  0  0  0  0  0  0  0  0  0
    3.8216   -1.5595   -2.7212 C   0  0  0  0  0  0  0  0  0  0  0  0
    3.9549   -2.8037   -3.4455 C   0  0  0  0  0  0  0  0  0  0  0  0
    4.1928   -2.6714   -4.7935 N   0  0  0  0  0  0  0  0  0  0  0  0
    4.2329   -3.7775   -5.5446 C   0  0  0  0  0  0  0  0  0  0  0  0
    4.4598   -3.6962   -6.9524 C   0  0  0  0  0  0  0  0  0  0  0  0
    4.4454   -4.8372   -7.7416 C   0  0  0  0  0  0  0  0  0  0  0  0
    4.2211   -6.1167   -7.1843 C   0  0  0  0  0  0  0  0  0  0  0  0
    4.0257   -6.2392   -5.8111 C   0  0  0  0  0  0  0  0  0  0  0  0
    4.0348   -5.0992   -4.9778 C   0  0  0  0  0  0  0  0  0  0  0  0
    3.8961   -5.2285   -3.6287 N   0  0  0  0  0  0  0  0  0  0  0  0
    3.8982   -4.1215   -2.8904 C   0  0  0  0  0  0  0  0  0  0  0  0
    3.9509   -4.3827   -1.4451 C   0  0  0  0  0  0  0  0  0  0  0  0
    3.6995   -5.6467   -0.9388 C   0  0  0  0  0  0  0  0  0  0  0  0
    3.7656   -5.9885    0.3571 N   0  0  0  0  0  0  0  0  0  0  0  0
    4.1169   -5.0742    1.4519 C   0  0  0  0  0  0  0  0  0  0  0  0
    4.2238   -5.9889    2.6793 C   0  0  0  0  0  0  0  0  0  0  0  0
    3.2666   -7.1451    2.3503 C   0  0  0  0  0  0  0  0  0  0  0  0
    3.4727   -7.3419    0.8459 C   0  0  0  0  0  0  0  0  0  0  0  0
    3.0385   -1.3677   -1.1373 S   0  0  0  0  0  0  0  0  0  0  0  0
    1.5308    1.8602    1.1571 H   0  0  0  0  0  0  0  0  0  0  0  0
    1.3749    0.1194    0.7591 H   0  0  0  0  0  0  0  0  0  0  0  0
    0.8785    1.3562   -0.4425 H   0  0  0  0  0  0  0  0  0  0  0  0
    4.0701    1.8272   -2.5757 H   0  0  0  0  0  0  0  0  0  0  0  0
    4.6227   -0.2103   -4.2043 H   0  0  0  0  0  0  0  0  0  0  0  0
    4.6238   -2.7050   -7.3802 H   0  0  0  0  0  0  0  0  0  0  0  0
    4.6089   -4.7445   -8.8195 H   0  0  0  0  0  0  0  0  0  0  0  0
    4.2091   -7.0000   -7.8268 H   0  0  0  0  0  0  0  0  0  0  0  0
    3.8668   -7.2124   -5.3396 H   0  0  0  0  0  0  0  0  0  0  0  0
    4.2335   -3.5714   -0.7742 H   0  0  0  0  0  0  0  0  0  0  0  0
    3.4352   -6.4327   -1.6516 H   0  0  0  0  0  0  0  0  0  0  0  0
    3.3235   -4.3137    1.5627 H   0  0  0  0  0  0  0  0  0  0  0  0
    5.0522   -4.5395    1.2222 H   0  0  0  0  0  0  0  0  0  0  0  0
    3.9696   -5.4646    3.6111 H   0  0  0  0  0  0  0  0  0  0  0  0
    5.2547   -6.3653    2.7807 H   0  0  0  0  0  0  0  0  0  0  0  0
    2.2237   -6.8503    2.5521 H   0  0  0  0  0  0  0  0  0  0  0  0
    3.4736   -8.0592    2.9245 H   0  0  0  0  0  0  0  0  0  0  0  0
    2.5980   -7.7564    0.3223 H   0  0  0  0  0  0  0  0  0  0  0  0
    4.3332   -8.0056    0.6392 H   0  0  0  0  0  0  0  0  0  0  0  0
  1  2  1  0
  1 25  1  0
  1 26  1  0
  1 27  1  0
  2  3  1  0
  3  4  2  0
  3 24  1  0
  4  5  1  0
  4 28  1  0
  5  6  2  0
  5 29  1  0
  6  7  1  0
  6 24  1  0
  7  8  2  0
  7 16  1  0
  8  9  1  0
  9 10  2  0
  9 14  1  0
 10 11  1  0
 10 30  1  0
 11 12  2  0
 11 31  1  0
 12 13  1  0
 12 32  1  0
 13 14  2  0
 13 33  1  0
 14 15  1  0
 15 16  2  0
 16 17  1  0
 17 18  2  0
 17 34  1  0
 18 19  1  0
 18 35  1  0
 19 20  1  0
 19 23  1  0
 20 21  1  0
 20 36  1  0
 20 37  1  0
 21 22  1  0
 21 38  1  0
 21 39  1  0
 22 23  1  0
 22 40  1  0
 22 41  1  0
 23 42  1  0
 23 43  1  0
M  END

