
     RDKit          3D

113120  0  0  0  0  0  0  0  0999 V2000
    6.2623   -2.0074   -4.6074 C   0  0  0  0  0  0  0  0  0  0  0  0
    6.0552   -0.4792   -4.4915 C   0  0  1  0  0  0  0  0  0  0  0  0
    7.3470    0.2165   -4.9575 C   0  0  0  0  0  0  0  0  0  0  0  0
    4.9091   -0.0445   -5.4343 C   0  0  0  0  0  0  0  0  0  0  0  0
    5.6933   -0.1182   -3.0366 C   0  0  0  0  0  0  0  0  0  0  0  0
    4.5225   -0.6636   -2.4532 C   0  0  0  0  0  0  0  0  0  0  0  0
    4.1278   -0.3915   -1.1450 C   0  0  0  0  0  0  0  0  0  0  0  0
    4.9342    0.4560   -0.3765 C   0  0  0  0  0  0  0  0  0  0  0  0
    6.1018    1.0340   -0.9313 C   0  0  0  0  0  0  0  0  0  0  0  0
    6.4726    0.7395   -2.2524 C   0  0  0  0  0  0  0  0  0  0  0  0
    6.6768    1.8854    0.0936 C   0  0  0  0  0  0  0  0  0  0  0  0
    7.8287    2.6858    0.1399 C   0  0  0  0  0  0  0  0  0  0  0  0
    8.1576    3.3930    1.3015 C   0  0  0  0  0  0  0  0  0  0  0  0
    9.4066    4.2916    1.4084 C   0  0  1  0  0  0  0  0  0  0  0  0
   10.2265    4.3048    0.1056 C   0  0  0  0  0  0  0  0  0  0  0  0
    8.9724    5.7433    1.7175 C   0  0  0  0  0  0  0  0  0  0  0  0
   10.3199    3.7764    2.5449 C   0  0  0  0  0  0  0  0  0  0  0  0
    7.2976    3.2609    2.4201 C   0  0  0  0  0  0  0  0  0  0  0  0
    6.1471    2.4753    2.4058 C   0  0  0  0  0  0  0  0  0  0  0  0
    5.8307    1.7931    1.2252 C   0  0  0  0  0  0  0  0  0  0  0  0
    4.7697    0.9211    0.9370 N   0  0  0  0  0  0  0  0  0  0  0  0
    3.7176    0.5762    1.8127 C   0  0  0  0  0  0  0  0  0  0  0  0
    2.9921    1.5790    2.4799 C   0  0  0  0  0  0  0  0  0  0  0  0
    1.9591    1.2392    3.3525 C   0  0  0  0  0  0  0  0  0  0  0  0
    1.6339   -0.1067    3.5407 C   0  0  0  0  0  0  0  0  0  0  0  0
    0.3127   -0.5455    4.6866 S   0  0  1  0  0  0  0  0  0  0  0  0
    0.6313   -1.8746    5.2295 O   0  0  0  0  0  0  0  0  0  0  0  0
    0.0920    0.6200    5.5557 O   0  0  0  0  0  0  0  0  0  0  0  0
   -1.1587   -0.7339    3.6609 C   0  0  0  0  0  0  0  0  0  0  0  0
   -1.5412   -2.0107    3.2417 C   0  0  0  0  0  0  0  0  0  0  0  0
   -2.6861   -2.1610    2.4599 C   0  0  0  0  0  0  0  0  0  0  0  0
   -3.4618   -1.0406    2.1139 C   0  0  0  0  0  0  0  0  0  0  0  0
   -4.6223   -1.1928    1.3241 N   0  0  0  0  0  0  0  0  0  0  0  0
   -4.9235   -0.4732    0.1584 C   0  0  0  0  0  0  0  0  0  0  0  0
   -4.1832    0.5021   -0.5197 C   0  0  0  0  0  0  0  0  0  0  0  0
   -4.7190    1.0357   -1.6899 C   0  0  0  0  0  0  0  0  0  0  0  0
   -5.9688    0.6315   -2.2219 C   0  0  0  0  0  0  0  0  0  0  0  0
   -6.4871    1.2852   -3.5191 C   0  0  2  0  0  0  0  0  0  0  0  0
   -7.8463    0.7097   -3.9564 C   0  0  0  0  0  0  0  0  0  0  0  0
   -5.4736    1.0455   -4.6623 C   0  0  0  0  0  0  0  0  0  0  0  0
   -6.6579    2.8060   -3.2960 C   0  0  0  0  0  0  0  0  0  0  0  0
   -6.6806   -0.3576   -1.5340 C   0  0  0  0  0  0  0  0  0  0  0  0
   -6.1682   -0.9151   -0.3523 C   0  0  0  0  0  0  0  0  0  0  0  0
   -6.6488   -1.9466    0.5485 C   0  0  0  0  0  0  0  0  0  0  0  0
   -7.8161   -2.7251    0.5796 C   0  0  0  0  0  0  0  0  0  0  0  0
   -8.0323   -3.6435    1.6128 C   0  0  0  0  0  0  0  0  0  0  0  0
   -9.2971   -4.5217    1.6993 C   0  0  2  0  0  0  0  0  0  0  0  0
  -10.0596   -4.2014    3.0061 C   0  0  0  0  0  0  0  0  0  0  0  0
   -8.8929   -6.0144    1.6946 C   0  0  0  0  0  0  0  0  0  0  0  0
  -10.2523   -4.2808    0.5165 C   0  0  0  0  0  0  0  0  0  0  0  0
   -7.0409   -3.7485    2.6202 C   0  0  0  0  0  0  0  0  0  0  0  0
   -5.8711   -2.9916    2.6171 C   0  0  0  0  0  0  0  0  0  0  0  0
   -5.6722   -2.0919    1.5635 C   0  0  0  0  0  0  0  0  0  0  0  0
   -3.0762    0.2343    2.5671 C   0  0  0  0  0  0  0  0  0  0  0  0
   -1.9264    0.3896    3.3387 C   0  0  0  0  0  0  0  0  0  0  0  0
    2.3517   -1.1175    2.8942 C   0  0  0  0  0  0  0  0  0  0  0  0
    3.3926   -0.7749    2.0334 C   0  0  0  0  0  0  0  0  0  0  0  0
    5.3560   -2.5671   -4.3296 H   0  0  0  0  0  0  0  0  0  0  0  0
    6.5212   -2.2852   -5.6427 H   0  0  0  0  0  0  0  0  0  0  0  0
    7.0788   -2.3454   -3.9495 H   0  0  0  0  0  0  0  0  0  0  0  0
    8.2154   -0.0755   -4.3465 H   0  0  0  0  0  0  0  0  0  0  0  0
    7.2577    1.3136   -4.9238 H   0  0  0  0  0  0  0  0  0  0  0  0
    7.5674   -0.0648   -5.9994 H   0  0  0  0  0  0  0  0  0  0  0  0
    3.9602   -0.5444   -5.1869 H   0  0  0  0  0  0  0  0  0  0  0  0
    4.7398    1.0425   -5.3748 H   0  0  0  0  0  0  0  0  0  0  0  0
    5.1533   -0.2949   -6.4800 H   0  0  0  0  0  0  0  0  0  0  0  0
    3.8885   -1.3271   -3.0457 H   0  0  0  0  0  0  0  0  0  0  0  0
    3.2104   -0.8267   -0.7461 H   0  0  0  0  0  0  0  0  0  0  0  0
    7.3761    1.1972   -2.6554 H   0  0  0  0  0  0  0  0  0  0  0  0
    8.4630    2.7404   -0.7450 H   0  0  0  0  0  0  0  0  0  0  0  0
   10.5950    3.3012   -0.1588 H   0  0  0  0  0  0  0  0  0  0  0  0
    9.6421    4.6905   -0.7444 H   0  0  0  0  0  0  0  0  0  0  0  0
   11.1053    4.9578    0.2251 H   0  0  0  0  0  0  0  0  0  0  0  0
    8.4112    5.8127    2.6619 H   0  0  0  0  0  0  0  0  0  0  0  0
    9.8539    6.3998    1.8057 H   0  0  0  0  0  0  0  0  0  0  0  0
    8.3296    6.1419    0.9165 H   0  0  0  0  0  0  0  0  0  0  0  0
   11.2169    4.4110    2.6364 H   0  0  0  0  0  0  0  0  0  0  0  0
    9.8084    3.7823    3.5194 H   0  0  0  0  0  0  0  0  0  0  0  0
   10.6511    2.7444    2.3477 H   0  0  0  0  0  0  0  0  0  0  0  0
    7.5376    3.7907    3.3446 H   0  0  0  0  0  0  0  0  0  0  0  0
    5.5258    2.3953    3.2989 H   0  0  0  0  0  0  0  0  0  0  0  0
    3.2373    2.6277    2.3049 H   0  0  0  0  0  0  0  0  0  0  0  0
    1.4051    2.0096    3.8918 H   0  0  0  0  0  0  0  0  0  0  0  0
   -0.9422   -2.8758    3.5318 H   0  0  0  0  0  0  0  0  0  0  0  0
   -2.9803   -3.1497    2.1042 H   0  0  0  0  0  0  0  0  0  0  0  0
   -3.2104    0.8377   -0.1573 H   0  0  0  0  0  0  0  0  0  0  0  0
   -4.1366    1.7982   -2.2120 H   0  0  0  0  0  0  0  0  0  0  0  0
   -8.1791    1.2024   -4.8836 H   0  0  0  0  0  0  0  0  0  0  0  0
   -8.6264    0.8752   -3.1969 H   0  0  0  0  0  0  0  0  0  0  0  0
   -7.7892   -0.3713   -4.1590 H   0  0  0  0  0  0  0  0  0  0  0  0
   -4.4869    1.4775   -4.4357 H   0  0  0  0  0  0  0  0  0  0  0  0
   -5.3329   -0.0317   -4.8455 H   0  0  0  0  0  0  0  0  0  0  0  0
   -5.8306    1.5068   -5.5979 H   0  0  0  0  0  0  0  0  0  0  0  0
   -7.3836    3.0072   -2.4920 H   0  0  0  0  0  0  0  0  0  0  0  0
   -7.0231    3.2935   -4.2151 H   0  0  0  0  0  0  0  0  0  0  0  0
   -5.7088    3.2891   -3.0179 H   0  0  0  0  0  0  0  0  0  0  0  0
   -7.6412   -0.7141   -1.9059 H   0  0  0  0  0  0  0  0  0  0  0  0
   -8.5525   -2.5933   -0.2133 H   0  0  0  0  0  0  0  0  0  0  0  0
   -9.4448   -4.3926    3.8988 H   0  0  0  0  0  0  0  0  0  0  0  0
  -10.9660   -4.8241    3.0867 H   0  0  0  0  0  0  0  0  0  0  0  0
  -10.3683   -3.1443    3.0333 H   0  0  0  0  0  0  0  0  0  0  0  0
   -9.7863   -6.6566    1.7670 H   0  0  0  0  0  0  0  0  0  0  0  0
   -8.3593   -6.2762    0.7671 H   0  0  0  0  0  0  0  0  0  0  0  0
   -8.2350   -6.2653    2.5407 H   0  0  0  0  0  0  0  0  0  0  0  0
   -9.7772   -4.5136   -0.4494 H   0  0  0  0  0  0  0  0  0  0  0  0
  -11.1379   -4.9284    0.6138 H   0  0  0  0  0  0  0  0  0  0  0  0
  -10.6084   -3.2393    0.4811 H   0  0  0  0  0  0  0  0  0  0  0  0
   -7.1891   -4.4475    3.4463 H   0  0  0  0  0  0  0  0  0  0  0  0
   -5.1447   -3.0996    3.4239 H   0  0  0  0  0  0  0  0  0  0  0  0
   -3.6995    1.0987    2.3324 H   0  0  0  0  0  0  0  0  0  0  0  0
   -1.6411    1.3722    3.7189 H   0  0  0  0  0  0  0  0  0  0  0  0
    2.1158   -2.1645    3.0932 H   0  0  0  0  0  0  0  0  0  0  0  0
    3.9803   -1.5552    1.5472 H   0  0  0  0  0  0  0  0  0  0  0  0
  2  1  1  1
  1 58  1  0
  1 59  1  0
  1 60  1  0
  2  3  1  0
  2  4  1  0
  2  5  1  0
  3 61  1  0
  3 62  1  0
  3 63  1  0
  4 64  1  0
  4 65  1  0
  4 66  1  0
  5  6  2  0
  5 10  1  0
  6  7  1  0
  6 67  1  0
  7  8  2  0
  7 68  1  0
  8  9  1  0
  8 21  1  0
  9 10  2  0
  9 11  1  0
 10 69  1  0
 11 12  2  0
 11 20  1  0
 12 13  1  0
 12 70  1  0
 13 14  1  0
 13 18  2  0
 14 15  1  6
 14 16  1  0
 14 17  1  0
 15 71  1  0
 15 72  1  0
 15 73  1  0
 16 74  1  0
 16 75  1  0
 16 76  1  0
 17 77  1  0
 17 78  1  0
 17 79  1  0
 18 19  1  0
 18 80  1  0
 19 20  2  0
 19 81  1  0
 20 21  1  0
 21 22  1  0
 22 23  2  0
 22 57  1  0
 23 24  1  0
 23 82  1  0
 24 25  2  0
 24 83  1  0
 26 25  1  6
 25 56  1  0
 26 27  2  0
 26 28  2  0
 26 29  1  0
 29 30  2  0
 29 55  1  0
 30 31  1  0
 30 84  1  0
 31 32  2  0
 31 85  1  0
 32 33  1  0
 32 54  1  0
 33 34  1  0
 33 53  1  0
 34 35  2  0
 34 43  1  0
 35 36  1  0
 35 86  1  0
 36 37  2  0
 36 87  1  0
 37 38  1  0
 37 42  1  0
 38 39  1  6
 38 40  1  0
 38 41  1  0
 39 88  1  0
 39 89  1  0
 39 90  1  0
 40 91  1  0
 40 92  1  0
 40 93  1  0
 41 94  1  0
 41 95  1  0
 41 96  1  0
 42 43  2  0
 42 97  1  0
 43 44  1  0
 44 45  1  0
 44 53  2  0
 45 46  2  0
 45 98  1  0
 46 47  1  0
 46 51  1  0
 47 48  1  1
 47 49  1  0
 47 50  1  0
 48 99  1  0
 48100  1  0
 48101  1  0
 49102  1  0
 49103  1  0
 49104  1  0
 50105  1  0
 50106  1  0
 50107  1  0
 51 52  2  0
 51108  1  0
 52 53  1  0
 52109  1  0
 54 55  2  0
 54110  1  0
 55111  1  0
 56 57  2  0
 56112  1  0
 57113  1  0
M  END

