
     RDKit          3D

 59 65  0  0  0  0  0  0  0  0999 V2000
    3.9558    1.6804    1.7508 O   0  0  0  0  0  0  0  0  0  0  0  0
    3.0162    0.7374    1.1256 S   0  0  1  0  0  0  0  0  0  0  0  0
    1.5614    0.8482    1.3111 O   0  0  0  0  0  0  0  0  0  0  0  0
    3.3309    0.7700   -0.6532 C   0  0  0  0  0  0  0  0  0  0  0  0
    2.2993    0.4328   -1.5339 C   0  0  0  0  0  0  0  0  0  0  0  0
    2.5427    0.4782   -2.9090 C   0  0  0  0  0  0  0  0  0  0  0  0
    3.7993    0.8651   -3.3872 C   0  0  0  0  0  0  0  0  0  0  0  0
    4.8165    1.2183   -2.4936 C   0  0  0  0  0  0  0  0  0  0  0  0
    4.5853    1.1774   -1.1164 C   0  0  0  0  0  0  0  0  0  0  0  0
    3.4949   -0.9175    1.6584 C   0  0  0  0  0  0  0  0  0  0  0  0
    2.5449   -1.9431    1.6563 C   0  0  0  0  0  0  0  0  0  0  0  0
    2.9077   -3.2149    2.0958 C   0  0  0  0  0  0  0  0  0  0  0  0
    4.2206   -3.4663    2.5333 C   0  0  0  0  0  0  0  0  0  0  0  0
    4.5932   -4.7546    2.9721 N   0  0  0  0  0  0  0  0  0  0  0  0
    4.4069   -5.9574    2.2719 C   0  0  0  0  0  0  0  0  0  0  0  0
    3.8024   -6.1766    1.0281 C   0  0  0  0  0  0  0  0  0  0  0  0
    3.7801   -7.4766    0.5225 C   0  0  0  0  0  0  0  0  0  0  0  0
    4.3565   -8.5470    1.2324 C   0  0  0  0  0  0  0  0  0  0  0  0
    4.9773   -8.3367    2.4607 C   0  0  0  0  0  0  0  0  0  0  0  0
    5.0139   -7.0369    2.9980 C   0  0  0  0  0  0  0  0  0  0  0  0
    5.5691   -6.4232    4.1697 C   0  0  0  0  0  0  0  0  0  0  0  0
    5.3198   -5.0591    4.1260 C   0  0  0  0  0  0  0  0  0  0  0  0
    5.8593   -4.4520    5.3084 C   0  0  0  0  0  0  0  0  0  0  0  0
    5.8896   -3.1584    5.8643 C   0  0  0  0  0  0  0  0  0  0  0  0
    6.5030   -2.9625    7.0981 C   0  0  0  0  0  0  0  0  0  0  0  0
    7.0819   -4.0396    7.7978 C   0  0  0  0  0  0  0  0  0  0  0  0
    7.0637   -5.3329    7.2783 C   0  0  0  0  0  0  0  0  0  0  0  0
    6.4598   -5.5393    6.0313 C   0  0  0  0  0  0  0  0  0  0  0  0
    6.2801   -6.7339    5.3245 N   0  0  0  0  0  0  0  0  0  0  0  0
    6.6658   -8.0314    5.7531 C   0  0  0  0  0  0  0  0  0  0  0  0
    5.7104   -9.0560    5.8376 C   0  0  0  0  0  0  0  0  0  0  0  0
    6.0925  -10.3352    6.2479 C   0  0  0  0  0  0  0  0  0  0  0  0
    7.4216  -10.5988    6.5943 C   0  0  0  0  0  0  0  0  0  0  0  0
    8.3716   -9.5758    6.5177 C   0  0  0  0  0  0  0  0  0  0  0  0
    8.0016   -8.2985    6.0899 C   0  0  0  0  0  0  0  0  0  0  0  0
    5.1596   -2.4196    2.5447 C   0  0  0  0  0  0  0  0  0  0  0  0
    4.7952   -1.1433    2.1190 C   0  0  0  0  0  0  0  0  0  0  0  0
    1.3187    0.1598   -1.1398 H   0  0  0  0  0  0  0  0  0  0  0  0
    1.7451    0.2196   -3.6098 H   0  0  0  0  0  0  0  0  0  0  0  0
    3.9844    0.9009   -4.4637 H   0  0  0  0  0  0  0  0  0  0  0  0
    5.7916    1.5364   -2.8707 H   0  0  0  0  0  0  0  0  0  0  0  0
    5.3562    1.4751   -0.4034 H   0  0  0  0  0  0  0  0  0  0  0  0
    1.5199   -1.7320    1.3460 H   0  0  0  0  0  0  0  0  0  0  0  0
    2.1656   -4.0137    2.1331 H   0  0  0  0  0  0  0  0  0  0  0  0
    3.3675   -5.3547    0.4581 H   0  0  0  0  0  0  0  0  0  0  0  0
    3.3100   -7.6625   -0.4463 H   0  0  0  0  0  0  0  0  0  0  0  0
    4.3242   -9.5537    0.8089 H   0  0  0  0  0  0  0  0  0  0  0  0
    5.4401   -9.1675    2.9959 H   0  0  0  0  0  0  0  0  0  0  0  0
    5.4262   -2.3196    5.3428 H   0  0  0  0  0  0  0  0  0  0  0  0
    6.5282   -1.9612    7.5343 H   0  0  0  0  0  0  0  0  0  0  0  0
    7.5485   -3.8622    8.7699 H   0  0  0  0  0  0  0  0  0  0  0  0
    7.4997   -6.1636    7.8352 H   0  0  0  0  0  0  0  0  0  0  0  0
    4.6697   -8.8406    5.5875 H   0  0  0  0  0  0  0  0  0  0  0  0
    5.3423  -11.1275    6.3097 H   0  0  0  0  0  0  0  0  0  0  0  0
    7.7159  -11.5987    6.9221 H   0  0  0  0  0  0  0  0  0  0  0  0
    9.4140   -9.7752    6.7786 H   0  0  0  0  0  0  0  0  0  0  0  0
    8.7468   -7.5059    6.0009 H   0  0  0  0  0  0  0  0  0  0  0  0
    6.1777   -2.6154    2.8849 H   0  0  0  0  0  0  0  0  0  0  0  0
    5.5115   -0.3202    2.1451 H   0  0  0  0  0  0  0  0  0  0  0  0
  1  2  2  0
  2  3  2  0
  2  4  1  6
  2 10  1  0
  4  5  2  0
  4  9  1  0
  5  6  1  0
  5 38  1  0
  6  7  2  0
  6 39  1  0
  7  8  1  0
  7 40  1  0
  8  9  2  0
  8 41  1  0
  9 42  1  0
 10 11  2  0
 10 37  1  0
 11 12  1  0
 11 43  1  0
 12 13  2  0
 12 44  1  0
 13 14  1  0
 13 36  1  0
 14 15  1  0
 14 22  1  0
 15 16  2  0
 15 20  1  0
 16 17  1  0
 16 45  1  0
 17 18  2  0
 17 46  1  0
 18 19  1  0
 18 47  1  0
 19 20  2  0
 19 48  1  0
 20 21  1  0
 21 22  2  0
 21 29  1  0
 22 23  1  0
 23 24  2  0
 23 28  1  0
 24 25  1  0
 24 49  1  0
 25 26  2  0
 25 50  1  0
 26 27  1  0
 26 51  1  0
 27 28  2  0
 27 52  1  0
 28 29  1  0
 29 30  1  0
 30 31  2  0
 30 35  1  0
 31 32  1  0
 31 53  1  0
 32 33  2  0
 32 54  1  0
 33 34  1  0
 33 55  1  0
 34 35  2  0
 34 56  1  0
 35 57  1  0
 36 37  2  0
 36 58  1  0
 37 59  1  0
M  END

