
     RDKit          3D

 82 90  0  0  0  0  0  0  0  0999 V2000
    1.5342    0.6422   -1.4468 O   0  0  0  0  0  0  0  0  0  0  0  0
    2.6624    0.3748   -0.7385 C   0  0  0  0  0  0  0  0  0  0  0  0
    3.1933    1.2672    0.2029 C   0  0  0  0  0  0  0  0  0  0  0  0
    4.3633    0.9290    0.8894 C   0  0  0  0  0  0  0  0  0  0  0  0
    5.0083   -0.2835    0.6464 C   0  0  0  0  0  0  0  0  0  0  0  0
    4.4783   -1.1905   -0.2937 C   0  0  0  0  0  0  0  0  0  0  0  0
    5.1566   -2.4971   -0.5504 C   0  0  0  0  0  0  0  0  0  0  0  0
    6.4815   -2.4643   -1.0761 C   0  0  0  0  0  0  0  0  0  0  0  0
    7.3006   -3.5480   -1.2396 N   0  0  0  0  0  0  0  0  0  0  0  0
    8.4788   -3.0528   -1.7279 C   0  0  0  0  0  0  0  0  0  0  0  0
    9.6459   -3.8194   -2.0156 C   0  0  0  0  0  0  0  0  0  0  0  0
   10.8870   -3.0785   -2.3960 C   0  0  0  0  0  0  0  0  0  0  0  0
   11.5011   -2.1962   -1.4841 C   0  0  0  0  0  0  0  0  0  0  0  0
   12.6644   -1.5165   -1.8447 C   0  0  0  0  0  0  0  0  0  0  0  0
   13.2316   -1.6903   -3.1106 C   0  0  0  0  0  0  0  0  0  0  0  0
   12.6248   -2.5609   -4.0260 C   0  0  0  0  0  0  0  0  0  0  0  0
   13.1170   -2.7713   -5.2749 O   0  0  0  0  0  0  0  0  0  0  0  0
   11.4599   -3.2527   -3.6648 C   0  0  0  0  0  0  0  0  0  0  0  0
    9.7341   -5.2264   -1.9683 C   0  0  0  0  0  0  0  0  0  0  0  0
   10.9176   -6.0203   -2.1560 C   0  0  0  0  0  0  0  0  0  0  0  0
   10.5680   -7.3435   -2.0375 C   0  0  0  0  0  0  0  0  0  0  0  0
    9.1565   -7.4113   -1.7739 C   0  0  0  0  0  0  0  0  0  0  0  0
    8.7046   -6.1102   -1.7267 N   0  0  0  0  0  0  0  0  0  0  0  0
    7.7538   -5.8383   -1.4887 H   0  0  0  0  0  0  0  0  0  0  0  0
    8.3854   -8.5790   -1.5936 C   0  0  0  0  0  0  0  0  0  0  0  0
    9.0834   -9.8861   -1.7848 C   0  0  0  0  0  0  0  0  0  0  0  0
    9.1951  -10.7990   -0.7162 C   0  0  0  0  0  0  0  0  0  0  0  0
    9.8549  -12.0139   -0.8998 C   0  0  0  0  0  0  0  0  0  0  0  0
   10.4061  -12.3486   -2.1403 C   0  0  0  0  0  0  0  0  0  0  0  0
   10.2959  -11.4499   -3.2100 C   0  0  0  0  0  0  0  0  0  0  0  0
   10.8008  -11.7130   -4.4438 O   0  0  0  0  0  0  0  0  0  0  0  0
    9.6398  -10.2241   -3.0279 C   0  0  0  0  0  0  0  0  0  0  0  0
    7.0037   -8.6111   -1.2417 C   0  0  0  0  0  0  0  0  0  0  0  0
    6.2449   -7.5276   -0.8919 N   0  0  0  0  0  0  0  0  0  0  0  0
    5.0039   -8.0226   -0.5967 C   0  0  0  0  0  0  0  0  0  0  0  0
    3.8900   -7.2564   -0.1435 C   0  0  0  0  0  0  0  0  0  0  0  0
    2.6641   -7.9978    0.2815 C   0  0  0  0  0  0  0  0  0  0  0  0
    2.7091   -8.8868    1.3747 C   0  0  0  0  0  0  0  0  0  0  0  0
    1.5580   -9.5681    1.7698 C   0  0  0  0  0  0  0  0  0  0  0  0
    0.3508   -9.3894    1.0876 C   0  0  0  0  0  0  0  0  0  0  0  0
    0.2977   -8.5121   -0.0040 C   0  0  0  0  0  0  0  0  0  0  0  0
   -0.8386   -8.2967   -0.7172 O   0  0  0  0  0  0  0  0  0  0  0  0
    1.4504   -7.8185   -0.3993 C   0  0  0  0  0  0  0  0  0  0  0  0
    3.8457   -5.8492   -0.0555 C   0  0  0  0  0  0  0  0  0  0  0  0
    2.7801   -5.0544    0.4913 C   0  0  0  0  0  0  0  0  0  0  0  0
    3.1324   -3.7314    0.3783 C   0  0  0  0  0  0  0  0  0  0  0  0
    4.4273   -3.6648   -0.2424 C   0  0  0  0  0  0  0  0  0  0  0  0
    4.8192   -4.9662   -0.4701 N   0  0  0  0  0  0  0  0  0  0  0  0
    5.7266   -5.2399   -0.8395 H   0  0  0  0  0  0  0  0  0  0  0  0
    4.9594   -9.4609   -0.8048 C   0  0  0  0  0  0  0  0  0  0  0  0
    6.2099   -9.8289   -1.2083 C   0  0  0  0  0  0  0  0  0  0  0  0
    8.3938   -1.6140   -1.9198 C   0  0  0  0  0  0  0  0  0  0  0  0
    7.1447   -1.2459   -1.5119 C   0  0  0  0  0  0  0  0  0  0  0  0
    3.3032   -0.8487   -0.9800 C   0  0  0  0  0  0  0  0  0  0  0  0
    1.1961    1.5123   -1.1978 H   0  0  0  0  0  0  0  0  0  0  0  0
    2.6928    2.2218    0.3949 H   0  0  0  0  0  0  0  0  0  0  0  0
    4.7724    1.6241    1.6272 H   0  0  0  0  0  0  0  0  0  0  0  0
    5.9184   -0.5424    1.1903 H   0  0  0  0  0  0  0  0  0  0  0  0
   11.0671   -2.0588   -0.4921 H   0  0  0  0  0  0  0  0  0  0  0  0
   13.1433   -0.8414   -1.1306 H   0  0  0  0  0  0  0  0  0  0  0  0
   14.1429   -1.1513   -3.3893 H   0  0  0  0  0  0  0  0  0  0  0  0
   13.9069   -2.2305   -5.4054 H   0  0  0  0  0  0  0  0  0  0  0  0
   11.0003   -3.9168   -4.3987 H   0  0  0  0  0  0  0  0  0  0  0  0
   11.9088   -5.6177   -2.3424 H   0  0  0  0  0  0  0  0  0  0  0  0
   11.2257   -8.2045   -2.1100 H   0  0  0  0  0  0  0  0  0  0  0  0
    8.7723  -10.5431    0.2568 H   0  0  0  0  0  0  0  0  0  0  0  0
    9.9475  -12.7137   -0.0652 H   0  0  0  0  0  0  0  0  0  0  0  0
   10.9200  -13.3052   -2.2797 H   0  0  0  0  0  0  0  0  0  0  0  0
   11.2129  -12.5868   -4.4439 H   0  0  0  0  0  0  0  0  0  0  0  0
    9.5571   -9.5471   -3.8798 H   0  0  0  0  0  0  0  0  0  0  0  0
    3.6465   -9.0283    1.9154 H   0  0  0  0  0  0  0  0  0  0  0  0
    1.5953  -10.2481    2.6249 H   0  0  0  0  0  0  0  0  0  0  0  0
   -0.5486   -9.9296    1.4001 H   0  0  0  0  0  0  0  0  0  0  0  0
   -1.5523   -8.8404   -0.3588 H   0  0  0  0  0  0  0  0  0  0  0  0
    1.3856   -7.1495   -1.2590 H   0  0  0  0  0  0  0  0  0  0  0  0
    1.8708   -5.4558    0.9284 H   0  0  0  0  0  0  0  0  0  0  0  0
    2.5597   -2.8696    0.7074 H   0  0  0  0  0  0  0  0  0  0  0  0
    4.0875  -10.0976   -0.6812 H   0  0  0  0  0  0  0  0  0  0  0  0
    6.5543  -10.8237   -1.4777 H   0  0  0  0  0  0  0  0  0  0  0  0
    9.1731   -0.9772   -2.3295 H   0  0  0  0  0  0  0  0  0  0  0  0
    6.7086   -0.2507   -1.5247 H   0  0  0  0  0  0  0  0  0  0  0  0
    2.8752   -1.5216   -1.7251 H   0  0  0  0  0  0  0  0  0  0  0  0
  1  2  1  0
  1 55  1  0
  2  3  2  0
  2 54  1  0
  3  4  1  0
  3 56  1  0
  4  5  2  0
  4 57  1  0
  5  6  1  0
  5 58  1  0
  6  7  1  0
  6 54  2  0
  7  8  1  0
  7 47  2  0
  8  9  2  0
  8 53  1  0
  9 10  1  0
 10 11  2  0
 10 52  1  0
 11 12  1  0
 11 19  1  0
 12 13  2  0
 12 18  1  0
 13 14  1  0
 13 59  1  0
 14 15  2  0
 14 60  1  0
 15 16  1  0
 15 61  1  0
 16 17  1  0
 16 18  2  0
 17 62  1  0
 18 63  1  0
 19 20  2  0
 19 23  1  0
 20 21  1  0
 20 64  1  0
 21 22  2  0
 21 65  1  0
 22 23  1  0
 22 25  1  0
 23 24  1  0
 25 26  1  0
 25 33  2  0
 26 27  2  0
 26 32  1  0
 27 28  1  0
 27 66  1  0
 28 29  2  0
 28 67  1  0
 29 30  1  0
 29 68  1  0
 30 31  1  0
 30 32  2  0
 31 69  1  0
 32 70  1  0
 33 34  1  0
 33 51  1  0
 34 35  2  0
 35 36  1  0
 35 50  1  0
 36 37  1  0
 36 44  2  0
 37 38  2  0
 37 43  1  0
 38 39  1  0
 38 71  1  0
 39 40  2  0
 39 72  1  0
 40 41  1  0
 40 73  1  0
 41 42  1  0
 41 43  2  0
 42 74  1  0
 43 75  1  0
 44 45  1  0
 44 48  1  0
 45 46  2  0
 45 76  1  0
 46 47  1  0
 46 77  1  0
 47 48  1  0
 48 49  1  0
 50 51  2  0
 50 78  1  0
 51 79  1  0
 52 53  2  0
 52 80  1  0
 53 81  1  0
 54 82  1  0
M  END

