
     RDKit          3D

 45 48  0  0  0  0  0  0  0  0999 V2000
    3.3812   -1.8810    0.6062 C   0  0  0  0  0  0  0  0  0  0  0  0
    3.4655   -0.4693    0.2883 N   0  0  0  0  0  0  0  0  0  0  0  0
    3.2618    0.5157    1.3314 C   0  0  0  0  0  0  0  0  0  0  0  0
    3.7256   -0.0656   -1.0040 C   0  0  0  0  0  0  0  0  0  0  0  0
    3.9282   -1.0039   -2.0499 C   0  0  0  0  0  0  0  0  0  0  0  0
    4.1922   -0.5868   -3.3470 C   0  0  0  0  0  0  0  0  0  0  0  0
    4.2701    0.7759   -3.6928 C   0  0  0  0  0  0  0  0  0  0  0  0
    4.5538    1.1753   -5.0895 C   0  0  0  0  0  0  0  0  0  0  0  0
    4.6086    2.5189   -5.5007 C   0  0  0  0  0  0  0  0  0  0  0  0
    4.8875    2.7847   -6.8478 C   0  0  0  0  0  0  0  0  0  0  0  0
    4.9703    4.1518   -7.3802 C   0  0  0  0  0  0  0  0  0  0  0  0
    5.2395    4.5188   -8.6837 C   0  0  0  0  0  0  0  0  0  0  0  0
    5.2523    5.9277   -8.8796 C   0  0  0  0  0  0  0  0  0  0  0  0
    4.9929    6.6242   -7.7235 C   0  0  0  0  0  0  0  0  0  0  0  0
    4.7298    5.5677   -6.3838 S   0  0  0  0  0  0  0  0  0  0  0  0
    5.0957    1.7861   -7.7204 N   0  0  0  0  0  0  0  0  0  0  0  0
    5.0253    0.5337   -7.2548 C   0  0  0  0  0  0  0  0  0  0  0  0
    5.2582   -0.5737   -8.2275 C   0  0  0  0  0  0  0  0  0  0  0  0
    5.5328   -0.2933   -9.5774 C   0  0  0  0  0  0  0  0  0  0  0  0
    5.7509   -1.3290  -10.4870 C   0  0  0  0  0  0  0  0  0  0  0  0
    5.6985   -2.6610  -10.0628 C   0  0  0  0  0  0  0  0  0  0  0  0
    5.4263   -2.9497   -8.7214 C   0  0  0  0  0  0  0  0  0  0  0  0
    5.2079   -1.9152   -7.8105 C   0  0  0  0  0  0  0  0  0  0  0  0
    4.7649    0.1972   -5.9865 N   0  0  0  0  0  0  0  0  0  0  0  0
    4.0685    1.7057   -2.6556 C   0  0  0  0  0  0  0  0  0  0  0  0
    3.8046    1.3085   -1.3505 C   0  0  0  0  0  0  0  0  0  0  0  0
    3.1667   -2.0015    1.6757 H   0  0  0  0  0  0  0  0  0  0  0  0
    4.3253   -2.4144    0.3907 H   0  0  0  0  0  0  0  0  0  0  0  0
    2.5769   -2.3888    0.0425 H   0  0  0  0  0  0  0  0  0  0  0  0
    3.0769    0.0046    2.2848 H   0  0  0  0  0  0  0  0  0  0  0  0
    2.3936    1.1692    1.1260 H   0  0  0  0  0  0  0  0  0  0  0  0
    4.1440    1.1682    1.4662 H   0  0  0  0  0  0  0  0  0  0  0  0
    3.8800   -2.0732   -1.8477 H   0  0  0  0  0  0  0  0  0  0  0  0
    4.3452   -1.3264   -4.1332 H   0  0  0  0  0  0  0  0  0  0  0  0
    4.4388    3.3356   -4.8005 H   0  0  0  0  0  0  0  0  0  0  0  0
    5.4200    3.7758   -9.4593 H   0  0  0  0  0  0  0  0  0  0  0  0
    5.4463    6.4098   -9.8389 H   0  0  0  0  0  0  0  0  0  0  0  0
    4.9413    7.7031   -7.5830 H   0  0  0  0  0  0  0  0  0  0  0  0
    5.5712    0.7486   -9.8958 H   0  0  0  0  0  0  0  0  0  0  0  0
    5.9633   -1.0961  -11.5338 H   0  0  0  0  0  0  0  0  0  0  0  0
    5.8697   -3.4721  -10.7757 H   0  0  0  0  0  0  0  0  0  0  0  0
    5.3844   -3.9884   -8.3830 H   0  0  0  0  0  0  0  0  0  0  0  0
    4.9955   -2.1286   -6.7628 H   0  0  0  0  0  0  0  0  0  0  0  0
    4.1189    2.7776   -2.8562 H   0  0  0  0  0  0  0  0  0  0  0  0
    3.6594    2.0780   -0.5936 H   0  0  0  0  0  0  0  0  0  0  0  0
  1  2  1  0
  1 27  1  0
  1 28  1  0
  1 29  1  0
  2  3  1  0
  2  4  1  0
  3 30  1  0
  3 31  1  0
  3 32  1  0
  4  5  2  0
  4 26  1  0
  5  6  1  0
  5 33  1  0
  6  7  2  0
  6 34  1  0
  7  8  1  0
  7 25  1  0
  8  9  2  0
  8 24  1  0
  9 10  1  0
  9 35  1  0
 10 11  1  0
 10 16  2  0
 11 12  2  0
 11 15  1  0
 12 13  1  0
 12 36  1  0
 13 14  2  0
 13 37  1  0
 14 15  1  0
 14 38  1  0
 16 17  1  0
 17 18  1  0
 17 24  2  0
 18 19  2  0
 18 23  1  0
 19 20  1  0
 19 39  1  0
 20 21  2  0
 20 40  1  0
 21 22  1  0
 21 41  1  0
 22 23  2  0
 22 42  1  0
 23 43  1  0
 25 26  2  0
 25 44  1  0
 26 45  1  0
M  END

