
     RDKit          3D

 38 39  0  0  0  0  0  0  0  0999 V2000
    2.7419    0.7379    1.0161 C   0  0  0  0  0  0  0  0  0  0  0  0
    2.5762    0.1733   -0.3966 C   0  0  0  0  0  0  0  0  0  0  0  0
    2.9846   -1.2242   -0.5419 N   0  0  0  0  0  0  0  0  0  0  0  0
    1.9319   -2.1762   -0.9197 C   0  0  0  0  0  0  0  0  0  0  0  0
    1.0582   -2.6468    0.2425 C   0  0  0  0  0  0  0  0  0  0  0  0
    4.3181   -1.5637   -0.4806 C   0  0  0  0  0  0  0  0  0  0  0  0
    5.3388   -0.5910   -0.6205 C   0  0  0  0  0  0  0  0  0  0  0  0
    6.6828   -0.9270   -0.5572 C   0  0  0  0  0  0  0  0  0  0  0  0
    7.5636    0.0663   -0.7598 F   0  0  0  0  0  0  0  0  0  0  0  0
    7.1340   -2.2377   -0.3473 C   0  0  0  0  0  0  0  0  0  0  0  0
    8.5479   -2.6987   -0.3228 C   0  0  0  0  0  0  0  0  0  0  0  0
    8.8150   -3.8607   -0.5893 O   0  0  0  0  0  0  0  0  0  0  0  0
    9.6822   -1.7675    0.0199 C   0  0  0  0  0  0  0  0  0  0  0  0
   10.9151   -1.9898   -0.6193 C   0  0  0  0  0  0  0  0  0  0  0  0
   12.0260   -1.2182   -0.3195 C   0  0  0  0  0  0  0  0  0  0  0  0
   13.1890   -1.4158   -0.9463 F   0  0  0  0  0  0  0  0  0  0  0  0
   11.9398   -0.2199    0.6598 C   0  0  0  0  0  0  0  0  0  0  0  0
   13.0155    0.5110    0.9447 F   0  0  0  0  0  0  0  0  0  0  0  0
   10.7449    0.0005    1.3351 C   0  0  0  0  0  0  0  0  0  0  0  0
    9.6344   -0.7749    1.0074 C   0  0  0  0  0  0  0  0  0  0  0  0
    8.5070   -0.5662    1.6992 F   0  0  0  0  0  0  0  0  0  0  0  0
    6.1248   -3.2152   -0.2236 C   0  0  0  0  0  0  0  0  0  0  0  0
    4.7870   -2.8927   -0.2613 C   0  0  0  0  0  0  0  0  0  0  0  0
    3.8953   -3.8874   -0.0461 F   0  0  0  0  0  0  0  0  0  0  0  0
    2.4100    1.7882    1.0465 H   0  0  0  0  0  0  0  0  0  0  0  0
    3.7906    0.7068    1.3481 H   0  0  0  0  0  0  0  0  0  0  0  0
    2.1421    0.1655    1.7403 H   0  0  0  0  0  0  0  0  0  0  0  0
    3.1104    0.8095   -1.1264 H   0  0  0  0  0  0  0  0  0  0  0  0
    1.5165    0.2258   -0.6854 H   0  0  0  0  0  0  0  0  0  0  0  0
    2.3914   -3.0371   -1.4174 H   0  0  0  0  0  0  0  0  0  0  0  0
    1.3037   -1.6808   -1.6813 H   0  0  0  0  0  0  0  0  0  0  0  0
    1.6640   -3.1802    0.9890 H   0  0  0  0  0  0  0  0  0  0  0  0
    0.2769   -3.3332   -0.1222 H   0  0  0  0  0  0  0  0  0  0  0  0
    0.5550   -1.8018    0.7397 H   0  0  0  0  0  0  0  0  0  0  0  0
    5.1012    0.4526   -0.8152 H   0  0  0  0  0  0  0  0  0  0  0  0
   10.9953   -2.7860   -1.3610 H   0  0  0  0  0  0  0  0  0  0  0  0
   10.6819    0.7619    2.1133 H   0  0  0  0  0  0  0  0  0  0  0  0
    6.4159   -4.2547   -0.0652 H   0  0  0  0  0  0  0  0  0  0  0  0
  1  2  1  0
  1 25  1  0
  1 26  1  0
  1 27  1  0
  2  3  1  0
  2 28  1  0
  2 29  1  0
  3  4  1  0
  3  6  1  0
  4  5  1  0
  4 30  1  0
  4 31  1  0
  5 32  1  0
  5 33  1  0
  5 34  1  0
  6  7  2  0
  6 23  1  0
  7  8  1  0
  7 35  1  0
  8  9  1  0
  8 10  2  0
 10 11  1  0
 10 22  1  0
 11 12  2  0
 11 13  1  0
 13 14  2  0
 13 20  1  0
 14 15  1  0
 14 36  1  0
 15 16  1  0
 15 17  2  0
 17 18  1  0
 17 19  1  0
 19 20  2  0
 19 37  1  0
 20 21  1  0
 22 23  2  0
 22 38  1  0
 23 24  1  0
M  END

