
     RDKit          3D

 32 34  0  0  0  0  0  0  0  0999 V2000
    0.9889   -0.0893   -0.4934 C   0  0  0  0  0  0  0  0  0  0  0  0
    2.4610    0.0481   -0.2151 C   0  0  0  0  0  0  0  0  0  0  0  0
    3.0720    1.2659   -0.0167 C   0  0  0  0  0  0  0  0  0  0  0  0
    4.4751    1.3404    0.2452 C   0  0  0  0  0  0  0  0  0  0  0  0
    5.1726    2.5389    0.4588 C   0  0  0  0  0  0  0  0  0  0  0  0
    6.5535    2.5436    0.7127 C   0  0  0  0  0  0  0  0  0  0  0  0
    7.2888    3.7501    0.9342 C   0  0  0  0  0  0  0  0  0  0  0  0
    8.6422    3.7573    1.1837 C   0  0  0  0  0  0  0  0  0  0  0  0
    9.3759    5.0545    1.4110 C   0  0  0  0  0  0  0  0  0  0  0  0
    9.3640    2.5028    1.2273 C   0  0  0  0  0  0  0  0  0  0  0  0
   10.8467    2.4948    1.5008 C   0  0  0  0  0  0  0  0  0  0  0  0
    8.6803    1.3277    1.0171 C   0  0  0  0  0  0  0  0  0  0  0  0
    7.2749    1.2923    0.7558 C   0  0  0  0  0  0  0  0  0  0  0  0
    6.5763    0.0947    0.5415 C   0  0  0  0  0  0  0  0  0  0  0  0
    5.1984    0.0961    0.2888 C   0  0  0  0  0  0  0  0  0  0  0  0
    4.4441   -1.1032    0.0650 C   0  0  0  0  0  0  0  0  0  0  0  0
    3.1617   -1.1355   -0.1717 N   0  0  0  0  0  0  0  0  0  0  0  0
    0.4783    0.8841   -0.5158 H   0  0  0  0  0  0  0  0  0  0  0  0
    0.5142   -0.7226    0.2742 H   0  0  0  0  0  0  0  0  0  0  0  0
    0.8298   -0.5968   -1.4593 H   0  0  0  0  0  0  0  0  0  0  0  0
    2.4876    2.1889   -0.0580 H   0  0  0  0  0  0  0  0  0  0  0  0
    4.6307    3.4885    0.4270 H   0  0  0  0  0  0  0  0  0  0  0  0
    6.7430    4.6978    0.9015 H   0  0  0  0  0  0  0  0  0  0  0  0
    8.6946    5.9150    1.3474 H   0  0  0  0  0  0  0  0  0  0  0  0
   10.1780    5.2033    0.6681 H   0  0  0  0  0  0  0  0  0  0  0  0
    9.8601    5.0798    2.4021 H   0  0  0  0  0  0  0  0  0  0  0  0
   11.4040    3.0723    0.7437 H   0  0  0  0  0  0  0  0  0  0  0  0
   11.2457    1.4703    1.5027 H   0  0  0  0  0  0  0  0  0  0  0  0
   11.0836    2.9502    2.4775 H   0  0  0  0  0  0  0  0  0  0  0  0
    9.2208    0.3769    1.0489 H   0  0  0  0  0  0  0  0  0  0  0  0
    7.1157   -0.8570    0.5727 H   0  0  0  0  0  0  0  0  0  0  0  0
    4.9750   -2.0659    0.0926 H   0  0  0  0  0  0  0  0  0  0  0  0
  1  2  1  0
  1 18  1  0
  1 19  1  0
  1 20  1  0
  2  3  2  0
  2 17  1  0
  3  4  1  0
  3 21  1  0
  4  5  2  0
  4 15  1  0
  5  6  1  0
  5 22  1  0
  6  7  2  0
  6 13  1  0
  7  8  1  0
  7 23  1  0
  8  9  1  0
  8 10  2  0
  9 24  1  0
  9 25  1  0
  9 26  1  0
 10 11  1  0
 10 12  1  0
 11 27  1  0
 11 28  1  0
 11 29  1  0
 12 13  2  0
 12 30  1  0
 13 14  1  0
 14 15  2  0
 14 31  1  0
 15 16  1  0
 16 17  2  0
 16 32  1  0
M  END

