
     RDKit          3D

 43 46  0  0  0  0  0  0  0  0999 V2000
    2.1907    1.3249   -0.7942 C   0  0  0  0  0  0  0  0  0  0  0  0
    2.2497    0.2518    0.1165 O   0  0  0  0  0  0  0  0  0  0  0  0
    3.1585    0.2889    1.1270 C   0  0  0  0  0  0  0  0  0  0  0  0
    4.0821    1.3266    1.3346 C   0  0  0  0  0  0  0  0  0  0  0  0
    4.9802    1.2644    2.4008 C   0  0  0  0  0  0  0  0  0  0  0  0
    4.9881    0.1760    3.3022 C   0  0  0  0  0  0  0  0  0  0  0  0
    5.9140    0.1164    4.3803 C   0  0  0  0  0  0  0  0  0  0  0  0
    6.7254    0.0522    5.2999 C   0  0  0  0  0  0  0  0  0  0  0  0
    7.6466    0.0169    6.3795 C   0  0  0  0  0  0  0  0  0  0  0  0
    8.0781    1.2224    6.8768 N   0  0  0  0  0  0  0  0  0  0  0  0
    8.9206    1.1914    7.9252 C   0  0  0  0  0  0  0  0  0  0  0  0
    9.4112    2.4045    8.4899 C   0  0  0  0  0  0  0  0  0  0  0  0
   10.2669    2.3886    9.5855 C   0  0  0  0  0  0  0  0  0  0  0  0
   10.6780    1.1765   10.1696 C   0  0  0  0  0  0  0  0  0  0  0  0
   10.2216   -0.0325    9.6370 C   0  0  0  0  0  0  0  0  0  0  0  0
    9.3565   -0.0484    8.5296 C   0  0  0  0  0  0  0  0  0  0  0  0
    8.9211   -1.2440    8.0060 N   0  0  0  0  0  0  0  0  0  0  0  0
    8.1163   -1.1923    6.9575 C   0  0  0  0  0  0  0  0  0  0  0  0
    7.7893   -2.5599    6.4334 C   0  0  0  0  0  0  0  0  0  0  0  0
    8.0143   -3.6962    7.2426 C   0  0  0  0  0  0  0  0  0  0  0  0
    7.6641   -5.1951    6.4764 S   0  0  0  0  0  0  0  0  0  0  0  0
    7.2130   -4.3151    5.0129 C   0  0  0  0  0  0  0  0  0  0  0  0
    6.8254   -5.0129    3.9835 O   0  0  0  0  0  0  0  0  0  0  0  0
    6.4803   -4.3436    2.7513 C   0  0  0  0  0  0  0  0  0  0  0  0
    7.3418   -2.9200    5.1601 C   0  0  0  0  0  0  0  0  0  0  0  0
    4.0344   -0.8527    3.0823 C   0  0  0  0  0  0  0  0  0  0  0  0
    3.1457   -0.8011    2.0163 C   0  0  0  0  0  0  0  0  0  0  0  0
    1.3903    1.0876   -1.5083 H   0  0  0  0  0  0  0  0  0  0  0  0
    3.1385    1.4487   -1.3497 H   0  0  0  0  0  0  0  0  0  0  0  0
    1.9492    2.2796   -0.2924 H   0  0  0  0  0  0  0  0  0  0  0  0
    4.1132    2.1904    0.6699 H   0  0  0  0  0  0  0  0  0  0  0  0
    5.6967    2.0750    2.5478 H   0  0  0  0  0  0  0  0  0  0  0  0
    9.0832    3.3398    8.0320 H   0  0  0  0  0  0  0  0  0  0  0  0
   10.6250    3.3356   10.0002 H   0  0  0  0  0  0  0  0  0  0  0  0
   11.3499    1.1800   11.0311 H   0  0  0  0  0  0  0  0  0  0  0  0
   10.5257   -0.9925   10.0614 H   0  0  0  0  0  0  0  0  0  0  0  0
    8.4029   -3.6466    8.2581 H   0  0  0  0  0  0  0  0  0  0  0  0
    6.1788   -5.1374    2.0605 H   0  0  0  0  0  0  0  0  0  0  0  0
    7.3581   -3.8091    2.3618 H   0  0  0  0  0  0  0  0  0  0  0  0
    5.6508   -3.6426    2.9189 H   0  0  0  0  0  0  0  0  0  0  0  0
    7.1088   -2.2043    4.3765 H   0  0  0  0  0  0  0  0  0  0  0  0
    3.9817   -1.6865    3.7872 H   0  0  0  0  0  0  0  0  0  0  0  0
    2.4074   -1.5899    1.8555 H   0  0  0  0  0  0  0  0  0  0  0  0
  1  2  1  0
  1 28  1  0
  1 29  1  0
  1 30  1  0
  2  3  1  0
  3  4  2  0
  3 27  1  0
  4  5  1  0
  4 31  1  0
  5  6  2  0
  5 32  1  0
  6  7  1  0
  6 26  1  0
  7  8  3  0
  8  9  1  0
  9 10  2  0
  9 18  1  0
 10 11  1  0
 11 12  2  0
 11 16  1  0
 12 13  1  0
 12 33  1  0
 13 14  2  0
 13 34  1  0
 14 15  1  0
 14 35  1  0
 15 16  2  0
 15 36  1  0
 16 17  1  0
 17 18  2  0
 18 19  1  0
 19 20  2  0
 19 25  1  0
 20 21  1  0
 20 37  1  0
 21 22  1  0
 22 23  1  0
 22 25  2  0
 23 24  1  0
 24 38  1  0
 24 39  1  0
 24 40  1  0
 25 41  1  0
 26 27  2  0
 26 42  1  0
 27 43  1  0
M  END

