
     RDKit          3D

 72 75  0  0  0  0  0  0  0  0999 V2000
    2.6283    1.6797    0.3782 C   0  0  0  0  0  0  0  0  0  0  0  0
    2.4820    0.2523    0.9192 C   0  0  0  0  0  0  0  0  0  0  0  0
    2.7012   -0.7995   -0.0673 N   0  0  0  0  0  0  0  0  0  0  0  0
    1.5946   -1.2082   -0.9335 C   0  0  0  0  0  0  0  0  0  0  0  0
    0.1987   -1.0588   -0.3352 C   0  0  0  0  0  0  0  0  0  0  0  0
    3.9981   -1.1292   -0.4488 C   0  0  0  0  0  0  0  0  0  0  0  0
    5.1327   -0.7134    0.2950 C   0  0  0  0  0  0  0  0  0  0  0  0
    6.4184   -1.0904   -0.0729 C   0  0  0  0  0  0  0  0  0  0  0  0
    6.6811   -1.8913   -1.2036 C   0  0  0  0  0  0  0  0  0  0  0  0
    8.0547   -2.2554   -1.5305 C   0  0  0  0  0  0  0  0  0  0  0  0
    8.4798   -3.0386   -2.5550 C   0  0  0  0  0  0  0  0  0  0  0  0
    9.8572   -3.3760   -2.8444 C   0  0  0  0  0  0  0  0  0  0  0  0
   11.0382   -2.9987   -2.2193 C   0  0  0  0  0  0  0  0  0  0  0  0
   12.1973   -3.5526   -2.8083 C   0  0  0  0  0  0  0  0  0  0  0  0
   11.9388   -4.3692   -3.9017 C   0  0  0  0  0  0  0  0  0  0  0  0
   12.8682   -5.0924   -4.7380 C   0  0  0  0  0  0  0  0  0  0  0  0
   12.6103   -5.9055   -5.8341 C   0  0  0  0  0  0  0  0  0  0  0  0
   13.7695   -6.4608   -6.4219 C   0  0  0  0  0  0  0  0  0  0  0  0
   14.9499   -6.0887   -5.7925 C   0  0  0  0  0  0  0  0  0  0  0  0
   16.3272   -6.4299   -6.0778 C   0  0  0  0  0  0  0  0  0  0  0  0
   16.7522   -7.2286   -7.0905 C   0  0  0  0  0  0  0  0  0  0  0  0
   18.1254   -7.5969   -7.4132 C   0  0  0  0  0  0  0  0  0  0  0  0
   19.2560   -7.1557   -6.6925 C   0  0  0  0  0  0  0  0  0  0  0  0
   20.5469   -7.5283   -7.0399 C   0  0  0  0  0  0  0  0  0  0  0  0
   20.8050   -8.3893   -8.1416 C   0  0  0  0  0  0  0  0  0  0  0  0
   22.0912   -8.7941   -8.4673 N   0  0  0  0  0  0  0  0  0  0  0  0
   23.2458   -8.3032   -7.7246 C   0  0  0  0  0  0  0  0  0  0  0  0
   23.7453   -6.9107   -8.1293 C   0  0  0  0  0  0  0  0  0  0  0  0
   22.3367   -9.6693   -9.6069 C   0  0  0  0  0  0  0  0  0  0  0  0
   22.3960   -8.9734  -10.9728 C   0  0  0  0  0  0  0  0  0  0  0  0
   19.6715   -8.8235   -8.8754 C   0  0  0  0  0  0  0  0  0  0  0  0
   18.3852   -8.4398   -8.5129 C   0  0  0  0  0  0  0  0  0  0  0  0
   14.5925   -5.0277   -4.4442 S   0  0  0  0  0  0  0  0  0  0  0  0
   10.2139   -4.4396   -4.1908 S   0  0  0  0  0  0  0  0  0  0  0  0
    5.5551   -2.2815   -1.9575 C   0  0  0  0  0  0  0  0  0  0  0  0
    4.2630   -1.9135   -1.6045 C   0  0  0  0  0  0  0  0  0  0  0  0
    2.4547    2.4170    1.1791 H   0  0  0  0  0  0  0  0  0  0  0  0
    1.9007    1.8784   -0.4254 H   0  0  0  0  0  0  0  0  0  0  0  0
    3.6356    1.8525   -0.0312 H   0  0  0  0  0  0  0  0  0  0  0  0
    1.4797    0.1221    1.3477 H   0  0  0  0  0  0  0  0  0  0  0  0
    3.1695    0.0967    1.7637 H   0  0  0  0  0  0  0  0  0  0  0  0
    1.7356   -2.2733   -1.1765 H   0  0  0  0  0  0  0  0  0  0  0  0
    1.6320   -0.6691   -1.9037 H   0  0  0  0  0  0  0  0  0  0  0  0
    0.1067   -1.5947    0.6227 H   0  0  0  0  0  0  0  0  0  0  0  0
   -0.5313   -1.4966   -1.0336 H   0  0  0  0  0  0  0  0  0  0  0  0
   -0.0943   -0.0099   -0.1764 H   0  0  0  0  0  0  0  0  0  0  0  0
    5.0176   -0.0894    1.1799 H   0  0  0  0  0  0  0  0  0  0  0  0
    7.2577   -0.7489    0.5404 H   0  0  0  0  0  0  0  0  0  0  0  0
    8.8096   -1.8404   -0.8533 H   0  0  0  0  0  0  0  0  0  0  0  0
    7.7373   -3.4691   -3.2346 H   0  0  0  0  0  0  0  0  0  0  0  0
   11.0657   -2.3345   -1.3545 H   0  0  0  0  0  0  0  0  0  0  0  0
   13.2084   -3.3607   -2.4446 H   0  0  0  0  0  0  0  0  0  0  0  0
   11.5997   -6.0929   -6.2016 H   0  0  0  0  0  0  0  0  0  0  0  0
   13.7424   -7.1211   -7.2896 H   0  0  0  0  0  0  0  0  0  0  0  0
   17.0694   -5.9912   -5.4032 H   0  0  0  0  0  0  0  0  0  0  0  0
   15.9966   -7.6589   -7.7573 H   0  0  0  0  0  0  0  0  0  0  0  0
   19.1287   -6.4951   -5.8315 H   0  0  0  0  0  0  0  0  0  0  0  0
   21.3686   -7.1399   -6.4399 H   0  0  0  0  0  0  0  0  0  0  0  0
   24.0583   -9.0343   -7.8621 H   0  0  0  0  0  0  0  0  0  0  0  0
   23.0166   -8.3168   -6.6459 H   0  0  0  0  0  0  0  0  0  0  0  0
   24.0753   -6.8927   -9.1794 H   0  0  0  0  0  0  0  0  0  0  0  0
   24.6007   -6.6134   -7.5005 H   0  0  0  0  0  0  0  0  0  0  0  0
   22.9581   -6.1503   -8.0129 H   0  0  0  0  0  0  0  0  0  0  0  0
   21.5694  -10.4610   -9.6266 H   0  0  0  0  0  0  0  0  0  0  0  0
   23.2910  -10.1881   -9.4227 H   0  0  0  0  0  0  0  0  0  0  0  0
   21.4615   -8.4347  -11.1919 H   0  0  0  0  0  0  0  0  0  0  0  0
   22.5566   -9.7149  -11.7727 H   0  0  0  0  0  0  0  0  0  0  0  0
   23.2208   -8.2455  -11.0168 H   0  0  0  0  0  0  0  0  0  0  0  0
   19.7883   -9.4692   -9.7444 H   0  0  0  0  0  0  0  0  0  0  0  0
   17.5442   -8.8053   -9.1097 H   0  0  0  0  0  0  0  0  0  0  0  0
    5.6863   -2.8855   -2.8586 H   0  0  0  0  0  0  0  0  0  0  0  0
    3.4496   -2.2408   -2.2492 H   0  0  0  0  0  0  0  0  0  0  0  0
  1  2  1  0
  1 37  1  0
  1 38  1  0
  1 39  1  0
  2  3  1  0
  2 40  1  0
  2 41  1  0
  3  4  1  0
  3  6  1  0
  4  5  1  0
  4 42  1  0
  4 43  1  0
  5 44  1  0
  5 45  1  0
  5 46  1  0
  6  7  2  0
  6 36  1  0
  7  8  1  0
  7 47  1  0
  8  9  2  0
  8 48  1  0
  9 10  1  0
  9 35  1  0
 10 11  2  0
 10 49  1  0
 11 12  1  0
 11 50  1  0
 12 13  2  0
 12 34  1  0
 13 14  1  0
 13 51  1  0
 14 15  2  0
 14 52  1  0
 15 16  1  0
 15 34  1  0
 16 17  2  0
 16 33  1  0
 17 18  1  0
 17 53  1  0
 18 19  2  0
 18 54  1  0
 19 20  1  0
 19 33  1  0
 20 21  2  0
 20 55  1  0
 21 22  1  0
 21 56  1  0
 22 23  2  0
 22 32  1  0
 23 24  1  0
 23 57  1  0
 24 25  2  0
 24 58  1  0
 25 26  1  0
 25 31  1  0
 26 27  1  0
 26 29  1  0
 27 28  1  0
 27 59  1  0
 27 60  1  0
 28 61  1  0
 28 62  1  0
 28 63  1  0
 29 30  1  0
 29 64  1  0
 29 65  1  0
 30 66  1  0
 30 67  1  0
 30 68  1  0
 31 32  2  0
 31 69  1  0
 32 70  1  0
 35 36  2  0
 35 71  1  0
 36 72  1  0
M  END

