
     RDKit          3D

100101  0  0  0  0  0  0  0  0999 V2000
    4.7480    5.9692    8.0063 C   0  0  0  0  0  0  0  0  0  0  0  0
    4.5095    6.1649    6.5085 C   0  0  0  0  0  0  0  0  0  0  0  0
    5.3673    5.2521    5.6264 C   0  0  0  0  0  0  0  0  0  0  0  0
    5.1328    5.4433    4.1249 C   0  0  0  0  0  0  0  0  0  0  0  0
    5.9904    4.5318    3.2432 C   0  0  0  0  0  0  0  0  0  0  0  0
    5.7368    4.7496    1.7405 C   0  0  0  0  0  0  0  0  0  0  0  0
    6.5462    3.9076    0.8655 N   0  0  0  0  0  0  0  0  0  0  0  0
    6.0967    2.5365    0.6587 C   0  0  0  0  0  0  0  0  0  0  0  0
    4.6766    2.4028    0.0872 C   0  0  0  0  0  0  0  0  0  0  0  0
    4.4729    3.0991   -1.2609 C   0  0  0  0  0  0  0  0  0  0  0  0
    3.0677    2.9172   -1.8415 C   0  0  0  0  0  0  0  0  0  0  0  0
    2.8611    3.6142   -3.1900 C   0  0  0  0  0  0  0  0  0  0  0  0
    1.4566    3.4294   -3.7663 C   0  0  0  0  0  0  0  0  0  0  0  0
    7.8944    4.2390    0.6607 C   0  0  0  0  0  0  0  0  0  0  0  0
    8.2857    5.5960    0.4441 C   0  0  0  0  0  0  0  0  0  0  0  0
    9.5969    5.9443    0.2069 C   0  0  0  0  0  0  0  0  0  0  0  0
   10.6453    4.9571    0.1615 C   0  0  0  0  0  0  0  0  0  0  0  0
   11.9655    5.3043   -0.0892 C   0  0  0  0  0  0  0  0  0  0  0  0
   13.1537    5.6156   -0.3193 C   0  0  0  0  0  0  0  0  0  0  0  0
   14.4716    5.9640   -0.5824 C   0  0  0  0  0  0  0  0  0  0  0  0
   14.8728    7.3312   -0.7853 C   0  0  0  0  0  0  0  0  0  0  0  0
   16.1818    7.6730   -1.0556 C   0  0  0  0  0  0  0  0  0  0  0  0
   17.2158    6.6913   -1.1466 C   0  0  0  0  0  0  0  0  0  0  0  0
   18.5353    7.0406   -1.4216 N   0  0  0  0  0  0  0  0  0  0  0  0
   18.9551    8.4369   -1.4159 C   0  0  0  0  0  0  0  0  0  0  0  0
   19.0942    9.0671   -0.0178 C   0  0  0  0  0  0  0  0  0  0  0  0
   20.1682    8.4268    0.8653 C   0  0  0  0  0  0  0  0  0  0  0  0
   20.2889    9.0764    2.2471 C   0  0  0  0  0  0  0  0  0  0  0  0
   21.3647    8.4460    3.1372 C   0  0  0  0  0  0  0  0  0  0  0  0
   21.4730    9.0947    4.5180 C   0  0  0  0  0  0  0  0  0  0  0  0
   19.5290    6.0208   -1.7356 C   0  0  0  0  0  0  0  0  0  0  0  0
   19.4041    5.4052   -3.1417 C   0  0  0  0  0  0  0  0  0  0  0  0
   19.5800    6.4035   -4.2889 C   0  0  0  0  0  0  0  0  0  0  0  0
   19.4552    5.7687   -5.6772 C   0  0  0  0  0  0  0  0  0  0  0  0
   19.6183    6.7643   -6.8303 C   0  0  0  0  0  0  0  0  0  0  0  0
   19.4865    6.1251   -8.2134 C   0  0  0  0  0  0  0  0  0  0  0  0
   16.8256    5.3325   -0.9403 C   0  0  0  0  0  0  0  0  0  0  0  0
   15.5187    4.9809   -0.6720 C   0  0  0  0  0  0  0  0  0  0  0  0
   10.2439    3.5909    0.3879 C   0  0  0  0  0  0  0  0  0  0  0  0
    8.9258    3.2572    0.6319 C   0  0  0  0  0  0  0  0  0  0  0  0
    4.1154    6.6408    8.6086 H   0  0  0  0  0  0  0  0  0  0  0  0
    5.7983    6.1721    8.2751 H   0  0  0  0  0  0  0  0  0  0  0  0
    4.5240    4.9346    8.3166 H   0  0  0  0  0  0  0  0  0  0  0  0
    4.7062    7.2186    6.2384 H   0  0  0  0  0  0  0  0  0  0  0  0
    3.4420    5.9922    6.2789 H   0  0  0  0  0  0  0  0  0  0  0  0
    5.1716    4.1970    5.8951 H   0  0  0  0  0  0  0  0  0  0  0  0
    6.4359    5.4244    5.8530 H   0  0  0  0  0  0  0  0  0  0  0  0
    5.3291    6.4988    3.8584 H   0  0  0  0  0  0  0  0  0  0  0  0
    4.0629    5.2729    3.8999 H   0  0  0  0  0  0  0  0  0  0  0  0
    5.7925    3.4762    3.5023 H   0  0  0  0  0  0  0  0  0  0  0  0
    7.0605    4.7070    3.4496 H   0  0  0  0  0  0  0  0  0  0  0  0
    5.9189    5.8074    1.4980 H   0  0  0  0  0  0  0  0  0  0  0  0
    4.6738    4.5732    1.5162 H   0  0  0  0  0  0  0  0  0  0  0  0
    6.1642    1.9386    1.5933 H   0  0  0  0  0  0  0  0  0  0  0  0
    6.7894    2.0720   -0.0567 H   0  0  0  0  0  0  0  0  0  0  0  0
    3.9261    2.7619    0.8131 H   0  0  0  0  0  0  0  0  0  0  0  0
    4.4789    1.3211   -0.0197 H   0  0  0  0  0  0  0  0  0  0  0  0
    5.2203    2.7169   -1.9807 H   0  0  0  0  0  0  0  0  0  0  0  0
    4.6923    4.1758   -1.1534 H   0  0  0  0  0  0  0  0  0  0  0  0
    2.3205    3.2960   -1.1186 H   0  0  0  0  0  0  0  0  0  0  0  0
    2.8528    1.8376   -1.9530 H   0  0  0  0  0  0  0  0  0  0  0  0
    3.6087    3.2364   -3.9111 H   0  0  0  0  0  0  0  0  0  0  0  0
    3.0753    4.6925   -3.0764 H   0  0  0  0  0  0  0  0  0  0  0  0
    1.2259    2.3626   -3.9259 H   0  0  0  0  0  0  0  0  0  0  0  0
    1.3454    3.9417   -4.7353 H   0  0  0  0  0  0  0  0  0  0  0  0
    0.6873    3.8332   -3.0866 H   0  0  0  0  0  0  0  0  0  0  0  0
    7.5269    6.3804    0.4314 H   0  0  0  0  0  0  0  0  0  0  0  0
    9.8565    6.9905    0.0296 H   0  0  0  0  0  0  0  0  0  0  0  0
   14.1133    8.1136   -0.7255 H   0  0  0  0  0  0  0  0  0  0  0  0
   16.4135    8.7272   -1.2051 H   0  0  0  0  0  0  0  0  0  0  0  0
   18.2582    9.0437   -2.0206 H   0  0  0  0  0  0  0  0  0  0  0  0
   19.9235    8.4916   -1.9350 H   0  0  0  0  0  0  0  0  0  0  0  0
   18.1203    9.0233    0.4982 H   0  0  0  0  0  0  0  0  0  0  0  0
   19.3198   10.1403   -0.1576 H   0  0  0  0  0  0  0  0  0  0  0  0
   21.1468    8.4785    0.3511 H   0  0  0  0  0  0  0  0  0  0  0  0
   19.9452    7.3521    0.9901 H   0  0  0  0  0  0  0  0  0  0  0  0
   19.3115    9.0198    2.7613 H   0  0  0  0  0  0  0  0  0  0  0  0
   20.5015   10.1555    2.1276 H   0  0  0  0  0  0  0  0  0  0  0  0
   22.3417    8.5061    2.6235 H   0  0  0  0  0  0  0  0  0  0  0  0
   21.1529    7.3672    3.2519 H   0  0  0  0  0  0  0  0  0  0  0  0
   21.7192   10.1671    4.4392 H   0  0  0  0  0  0  0  0  0  0  0  0
   22.2558    8.6182    5.1295 H   0  0  0  0  0  0  0  0  0  0  0  0
   20.5233    9.0158    5.0732 H   0  0  0  0  0  0  0  0  0  0  0  0
   19.4963    5.2154   -0.9811 H   0  0  0  0  0  0  0  0  0  0  0  0
   20.5207    6.4854   -1.6311 H   0  0  0  0  0  0  0  0  0  0  0  0
   18.4237    4.9081   -3.2351 H   0  0  0  0  0  0  0  0  0  0  0  0
   20.1631    4.6056   -3.2239 H   0  0  0  0  0  0  0  0  0  0  0  0
   20.5668    6.8966   -4.2009 H   0  0  0  0  0  0  0  0  0  0  0  0
   18.8278    7.2063   -4.1903 H   0  0  0  0  0  0  0  0  0  0  0  0
   18.4708    5.2719   -5.7619 H   0  0  0  0  0  0  0  0  0  0  0  0
   20.2064    4.9634   -5.7817 H   0  0  0  0  0  0  0  0  0  0  0  0
   20.6026    7.2604   -6.7450 H   0  0  0  0  0  0  0  0  0  0  0  0
   18.8677    7.5683   -6.7221 H   0  0  0  0  0  0  0  0  0  0  0  0
   20.2468    5.3408   -8.3670 H   0  0  0  0  0  0  0  0  0  0  0  0
   19.6092    6.8687   -9.0171 H   0  0  0  0  0  0  0  0  0  0  0  0
   18.4979    5.6540   -8.3443 H   0  0  0  0  0  0  0  0  0  0  0  0
   17.5688    4.5370   -0.9885 H   0  0  0  0  0  0  0  0  0  0  0  0
   15.2638    3.9297   -0.5214 H   0  0  0  0  0  0  0  0  0  0  0  0
   11.0090    2.8116    0.3822 H   0  0  0  0  0  0  0  0  0  0  0  0
    8.6853    2.2115    0.8295 H   0  0  0  0  0  0  0  0  0  0  0  0
  1  2  1  0
  1 41  1  0
  1 42  1  0
  1 43  1  0
  2  3  1  0
  2 44  1  0
  2 45  1  0
  3  4  1  0
  3 46  1  0
  3 47  1  0
  4  5  1  0
  4 48  1  0
  4 49  1  0
  5  6  1  0
  5 50  1  0
  5 51  1  0
  6  7  1  0
  6 52  1  0
  6 53  1  0
  7  8  1  0
  7 14  1  0
  8  9  1  0
  8 54  1  0
  8 55  1  0
  9 10  1  0
  9 56  1  0
  9 57  1  0
 10 11  1  0
 10 58  1  0
 10 59  1  0
 11 12  1  0
 11 60  1  0
 11 61  1  0
 12 13  1  0
 12 62  1  0
 12 63  1  0
 13 64  1  0
 13 65  1  0
 13 66  1  0
 14 15  2  0
 14 40  1  0
 15 16  1  0
 15 67  1  0
 16 17  2  0
 16 68  1  0
 17 18  1  0
 17 39  1  0
 18 19  3  0
 19 20  1  0
 20 21  2  0
 20 38  1  0
 21 22  1  0
 21 69  1  0
 22 23  2  0
 22 70  1  0
 23 24  1  0
 23 37  1  0
 24 25  1  0
 24 31  1  0
 25 26  1  0
 25 71  1  0
 25 72  1  0
 26 27  1  0
 26 73  1  0
 26 74  1  0
 27 28  1  0
 27 75  1  0
 27 76  1  0
 28 29  1  0
 28 77  1  0
 28 78  1  0
 29 30  1  0
 29 79  1  0
 29 80  1  0
 30 81  1  0
 30 82  1  0
 30 83  1  0
 31 32  1  0
 31 84  1  0
 31 85  1  0
 32 33  1  0
 32 86  1  0
 32 87  1  0
 33 34  1  0
 33 88  1  0
 33 89  1  0
 34 35  1  0
 34 90  1  0
 34 91  1  0
 35 36  1  0
 35 92  1  0
 35 93  1  0
 36 94  1  0
 36 95  1  0
 36 96  1  0
 37 38  2  0
 37 97  1  0
 38 98  1  0
 39 40  2  0
 39 99  1  0
 40100  1  0
M  END

