
     RDKit          3D

 31 32  0  0  0  0  0  0  0  0999 V2000
    1.9076   -1.3214   -0.7348 C   0  0  0  0  0  0  0  0  0  0  0  0
    2.4783   -0.1150   -0.0153 C   0  0  0  0  0  0  0  0  0  0  0  0
    2.3120    1.0044   -0.4624 O   0  0  0  0  0  0  0  0  0  0  0  0
    3.2519   -0.2963    1.2599 C   0  0  0  0  0  0  0  0  0  0  0  0
    3.7581    0.8497    1.8888 C   0  0  0  0  0  0  0  0  0  0  0  0
    4.4847    0.8077    3.0795 C   0  0  0  0  0  0  0  0  0  0  0  0
    4.7567   -0.4496    3.6959 C   0  0  0  0  0  0  0  0  0  0  0  0
    4.2538   -1.6165    3.0822 C   0  0  0  0  0  0  0  0  0  0  0  0
    3.5258   -1.5200    1.9079 C   0  0  0  0  0  0  0  0  0  0  0  0
    3.0801   -2.6719    1.3823 F   0  0  0  0  0  0  0  0  0  0  0  0
    5.4786   -0.5163    4.8542 N   0  0  0  0  0  0  0  0  0  0  0  0
    6.3156    0.6000    5.3275 C   0  0  2  0  0  0  0  0  0  0  0  0
    7.6342    0.6589    4.5283 C   0  0  0  0  0  0  0  0  0  0  0  0
    6.6102    0.3721    6.8148 C   0  0  0  0  0  0  0  0  0  0  0  0
    5.5059    1.8951    5.1324 C   0  0  0  0  0  0  0  0  0  0  0  0
    4.9402    2.0627    3.7260 C   0  0  0  0  0  0  0  0  0  0  0  0
    4.8250    3.1578    3.2112 O   0  0  0  0  0  0  0  0  0  0  0  0
    1.3771   -0.9698   -1.6288 H   0  0  0  0  0  0  0  0  0  0  0  0
    1.2183   -1.8802   -0.0830 H   0  0  0  0  0  0  0  0  0  0  0  0
    2.7048   -2.0244   -1.0222 H   0  0  0  0  0  0  0  0  0  0  0  0
    3.5634    1.8198    1.4267 H   0  0  0  0  0  0  0  0  0  0  0  0
    4.4319   -2.6056    3.5089 H   0  0  0  0  0  0  0  0  0  0  0  0
    5.7624   -1.4419    5.1566 H   0  0  0  0  0  0  0  0  0  0  0  0
    8.2000   -0.2791    4.6465 H   0  0  0  0  0  0  0  0  0  0  0  0
    8.2689    1.4867    4.8816 H   0  0  0  0  0  0  0  0  0  0  0  0
    7.4472    0.8113    3.4540 H   0  0  0  0  0  0  0  0  0  0  0  0
    7.1799   -0.5607    6.9650 H   0  0  0  0  0  0  0  0  0  0  0  0
    5.6772    0.3050    7.3947 H   0  0  0  0  0  0  0  0  0  0  0  0
    7.2145    1.1976    7.2196 H   0  0  0  0  0  0  0  0  0  0  0  0
    6.1076    2.7822    5.3752 H   0  0  0  0  0  0  0  0  0  0  0  0
    4.6391    1.8846    5.8190 H   0  0  0  0  0  0  0  0  0  0  0  0
  1  2  1  0
  1 18  1  0
  1 19  1  0
  1 20  1  0
  2  3  2  0
  2  4  1  0
  4  5  2  0
  4  9  1  0
  5  6  1  0
  5 21  1  0
  6  7  2  0
  6 16  1  0
  7  8  1  0
  7 11  1  0
  8  9  2  0
  8 22  1  0
  9 10  1  0
 11 12  1  0
 11 23  1  0
 12 13  1  6
 12 14  1  0
 12 15  1  0
 13 24  1  0
 13 25  1  0
 13 26  1  0
 14 27  1  0
 14 28  1  0
 14 29  1  0
 15 16  1  0
 15 30  1  0
 15 31  1  0
 16 17  2  0
M  END

