
     RDKit          3D

 82 91  0  0  0  0  0  0  0  0999 V2000
   -8.9404    0.1886   -0.2217 O   0  0  0  0  0  0  0  0  0  0  0  0
   -7.7208    0.1703   -0.2066 C   0  0  0  0  0  0  0  0  0  0  0  0
   -6.9216    1.3863   -0.5308 C   0  0  0  0  0  0  0  0  0  0  0  0
   -7.6204    2.5642   -0.8595 C   0  0  0  0  0  0  0  0  0  0  0  0
   -6.9358    3.7314   -1.1723 C   0  0  0  0  0  0  0  0  0  0  0  0
   -5.5338    3.7312   -1.1593 C   0  0  0  0  0  0  0  0  0  0  0  0
   -4.8363    2.5697   -0.8351 C   0  0  0  0  0  0  0  0  0  0  0  0
   -5.5165    1.3827   -0.5166 C   0  0  0  0  0  0  0  0  0  0  0  0
   -4.6927    0.1267   -0.1645 C   0  0  2  0  0  0  0  0  0  0  0  0
   -5.5619   -1.1066    0.1605 C   0  0  0  0  0  0  0  0  0  0  0  0
   -4.9258   -2.3136    0.4941 C   0  0  0  0  0  0  0  0  0  0  0  0
   -5.6656   -3.4545    0.7970 C   0  0  0  0  0  0  0  0  0  0  0  0
   -7.0668   -3.4132    0.7728 C   0  0  0  0  0  0  0  0  0  0  0  0
   -7.7081   -2.2259    0.4446 C   0  0  0  0  0  0  0  0  0  0  0  0
   -6.9665   -1.0686    0.1371 C   0  0  0  0  0  0  0  0  0  0  0  0
   -3.8471    0.4461    1.0707 C   0  0  0  0  0  0  0  0  0  0  0  0
   -4.4832    0.7919    2.2636 C   0  0  0  0  0  0  0  0  0  0  0  0
   -3.7584    1.0879    3.4192 C   0  0  0  0  0  0  0  0  0  0  0  0
   -2.3544    1.0403    3.3956 C   0  0  0  0  0  0  0  0  0  0  0  0
   -1.6922    0.7016    2.2309 C   0  0  0  0  0  0  0  0  0  0  0  0
   -2.4249    0.3989    1.0475 C   0  0  0  0  0  0  0  0  0  0  0  0
   -1.7346    0.0627   -0.1085 N   0  0  0  0  0  0  0  0  0  0  0  0
   -0.2758    0.0217   -0.0782 C   0  0  0  0  0  0  0  0  0  0  0  0
    0.4689    1.1790   -0.3833 C   0  0  0  0  0  0  0  0  0  0  0  0
    1.8522    1.1377   -0.3521 C   0  0  0  0  0  0  0  0  0  0  0  0
    2.5570   -0.0596   -0.0142 C   0  0  0  0  0  0  0  0  0  0  0  0
    3.9973   -0.1010    0.0204 C   0  0  0  0  0  0  0  0  0  0  0  0
    4.6988    1.0346   -0.2753 N   0  0  0  0  0  0  0  0  0  0  0  0
    6.0164    0.9420   -0.2261 C   0  0  0  0  0  0  0  0  0  0  0  0
    6.8155    2.1643   -0.5412 C   0  0  0  0  0  0  0  0  0  0  0  0
    8.2195    2.1270   -0.5021 C   0  0  0  0  0  0  0  0  0  0  0  0
    8.9694    3.2683   -0.7963 C   0  0  0  0  0  0  0  0  0  0  0  0
    8.3292    4.4645   -1.1340 C   0  0  0  0  0  0  0  0  0  0  0  0
    6.9304    4.5108   -1.1753 C   0  0  0  0  0  0  0  0  0  0  0  0
    6.1808    3.3714   -0.8815 C   0  0  0  0  0  0  0  0  0  0  0  0
    6.7051   -0.1790    0.0894 N   0  0  0  0  0  0  0  0  0  0  0  0
    5.9379   -1.2583    0.3670 C   0  0  0  0  0  0  0  0  0  0  0  0
    6.6480   -2.5243    0.7204 C   0  0  0  0  0  0  0  0  0  0  0  0
    5.9280   -3.6926    1.0242 C   0  0  0  0  0  0  0  0  0  0  0  0
    6.5943   -4.8733    1.3535 C   0  0  0  0  0  0  0  0  0  0  0  0
    7.9937   -4.9078    1.3851 C   0  0  0  0  0  0  0  0  0  0  0  0
    8.7185   -3.7506    1.0843 C   0  0  0  0  0  0  0  0  0  0  0  0
    8.0520   -2.5680    0.7546 C   0  0  0  0  0  0  0  0  0  0  0  0
    4.6165   -1.2747    0.3490 N   0  0  0  0  0  0  0  0  0  0  0  0
    1.7702   -1.2145    0.2887 C   0  0  0  0  0  0  0  0  0  0  0  0
    0.3870   -1.1762    0.2578 C   0  0  0  0  0  0  0  0  0  0  0  0
   -2.3946   -0.2370   -1.2921 C   0  0  0  0  0  0  0  0  0  0  0  0
   -1.6315   -0.5686   -2.4481 C   0  0  0  0  0  0  0  0  0  0  0  0
   -2.2632   -0.8710   -3.6396 C   0  0  0  0  0  0  0  0  0  0  0  0
   -3.6659   -0.8533   -3.7174 C   0  0  0  0  0  0  0  0  0  0  0  0
   -4.4203   -0.5293   -2.5886 C   0  0  0  0  0  0  0  0  0  0  0  0
   -3.8155   -0.2184   -1.3701 C   0  0  0  0  0  0  0  0  0  0  0  0
   -8.7111    2.5204   -0.8576 H   0  0  0  0  0  0  0  0  0  0  0  0
   -7.4838    4.6416   -1.4262 H   0  0  0  0  0  0  0  0  0  0  0  0
   -4.9819    4.6421   -1.4031 H   0  0  0  0  0  0  0  0  0  0  0  0
   -3.7439    2.5879   -0.8300 H   0  0  0  0  0  0  0  0  0  0  0  0
   -3.8346   -2.3642    0.5179 H   0  0  0  0  0  0  0  0  0  0  0  0
   -5.1474   -4.3817    1.0533 H   0  0  0  0  0  0  0  0  0  0  0  0
   -7.6480   -4.3073    1.0100 H   0  0  0  0  0  0  0  0  0  0  0  0
   -8.7966   -2.1501    0.4137 H   0  0  0  0  0  0  0  0  0  0  0  0
   -5.5739    0.8298    2.2887 H   0  0  0  0  0  0  0  0  0  0  0  0
   -4.2858    1.3548    4.3373 H   0  0  0  0  0  0  0  0  0  0  0  0
   -1.7798    1.2697    4.2949 H   0  0  0  0  0  0  0  0  0  0  0  0
   -0.6064    0.6608    2.1991 H   0  0  0  0  0  0  0  0  0  0  0  0
   -0.0455    2.1081   -0.6444 H   0  0  0  0  0  0  0  0  0  0  0  0
    2.4360    2.0278   -0.5866 H   0  0  0  0  0  0  0  0  0  0  0  0
    8.7033    1.1866   -0.2370 H   0  0  0  0  0  0  0  0  0  0  0  0
   10.0616    3.2237   -0.7615 H   0  0  0  0  0  0  0  0  0  0  0  0
    8.9165    5.3578   -1.3641 H   0  0  0  0  0  0  0  0  0  0  0  0
    6.4224    5.4430   -1.4384 H   0  0  0  0  0  0  0  0  0  0  0  0
    5.0907    3.3913   -0.9092 H   0  0  0  0  0  0  0  0  0  0  0  0
    4.8386   -3.6497    0.9951 H   0  0  0  0  0  0  0  0  0  0  0  0
    6.0204   -5.7745    1.5873 H   0  0  0  0  0  0  0  0  0  0  0  0
    8.5158   -5.8334    1.6431 H   0  0  0  0  0  0  0  0  0  0  0  0
    9.8118   -3.7690    1.1067 H   0  0  0  0  0  0  0  0  0  0  0  0
    8.6021   -1.6571    0.5178 H   0  0  0  0  0  0  0  0  0  0  0  0
    2.2909   -2.1362    0.5477 H   0  0  0  0  0  0  0  0  0  0  0  0
   -0.1908   -2.0742    0.4938 H   0  0  0  0  0  0  0  0  0  0  0  0
   -0.5470   -0.5781   -2.3747 H   0  0  0  0  0  0  0  0  0  0  0  0
   -1.6654   -1.1227   -4.5175 H   0  0  0  0  0  0  0  0  0  0  0  0
   -4.1692   -1.0917   -4.6566 H   0  0  0  0  0  0  0  0  0  0  0  0
   -5.5099   -0.5176   -2.6554 H   0  0  0  0  0  0  0  0  0  0  0  0
  1  2  2  0
  2  3  1  0
  2 15  1  0
  3  4  1  0
  3  8  2  0
  4  5  2  0
  4 53  1  0
  5  6  1  0
  5 54  1  0
  6  7  2  0
  6 55  1  0
  7  8  1  0
  7 56  1  0
  9  8  1  6
  9 10  1  0
  9 16  1  0
  9 52  1  0
 10 11  1  0
 10 15  2  0
 11 12  2  0
 11 57  1  0
 12 13  1  0
 12 58  1  0
 13 14  2  0
 13 59  1  0
 14 15  1  0
 14 60  1  0
 16 17  2  0
 16 21  1  0
 17 18  1  0
 17 61  1  0
 18 19  2  0
 18 62  1  0
 19 20  1  0
 19 63  1  0
 20 21  2  0
 20 64  1  0
 21 22  1  0
 22 23  1  0
 22 47  1  0
 23 24  2  0
 23 46  1  0
 24 25  1  0
 24 65  1  0
 25 26  2  0
 25 66  1  0
 26 27  1  0
 26 45  1  0
 27 28  2  0
 27 44  1  0
 28 29  1  0
 29 30  1  0
 29 36  2  0
 30 31  2  0
 30 35  1  0
 31 32  1  0
 31 67  1  0
 32 33  2  0
 32 68  1  0
 33 34  1  0
 33 69  1  0
 34 35  2  0
 34 70  1  0
 35 71  1  0
 36 37  1  0
 37 38  1  0
 37 44  2  0
 38 39  2  0
 38 43  1  0
 39 40  1  0
 39 72  1  0
 40 41  2  0
 40 73  1  0
 41 42  1  0
 41 74  1  0
 42 43  2  0
 42 75  1  0
 43 76  1  0
 45 46  2  0
 45 77  1  0
 46 78  1  0
 47 48  1  0
 47 52  2  0
 48 49  2  0
 48 79  1  0
 49 50  1  0
 49 80  1  0
 50 51  2  0
 50 81  1  0
 51 52  1  0
 51 82  1  0
M  END

