
     RDKit          3D

 36 39  0  0  0  0  0  0  0  0999 V2000
    1.2219    0.5321   -0.2476 C   0  0  0  0  0  0  0  0  0  0  0  0
    2.7134    0.3627   -0.1706 C   0  0  0  0  0  0  0  0  0  0  0  0
    3.6173    1.4449   -0.3336 C   0  0  0  0  0  0  0  0  0  0  0  0
    4.9460    1.0966   -0.2306 C   0  0  0  0  0  0  0  0  0  0  0  0
    5.1410   -0.5917    0.0736 S   0  0  0  0  0  0  0  0  0  0  0  0
    3.3890   -0.8563    0.0655 C   0  0  0  0  0  0  0  0  0  0  0  0
    2.8993   -2.1756    0.2814 C   0  0  0  0  0  0  0  0  0  0  0  0
    3.6660   -3.3433    0.5106 C   0  0  0  0  0  0  0  0  0  0  0  0
    2.9177   -4.4998    0.6903 C   0  0  0  0  0  0  0  0  0  0  0  0
    1.5189   -4.2937    0.6099 C   0  0  0  0  0  0  0  0  0  0  0  0
    0.4762   -5.2292    0.7417 C   0  0  0  0  0  0  0  0  0  0  0  0
   -0.9226   -5.0233    0.6605 C   0  0  0  0  0  0  0  0  0  0  0  0
   -1.6709   -6.1797    0.8406 C   0  0  0  0  0  0  0  0  0  0  0  0
   -0.9042   -7.3472    1.0716 C   0  0  0  0  0  0  0  0  0  0  0  0
   -1.3939   -8.6660    1.2903 C   0  0  0  0  0  0  0  0  0  0  0  0
   -3.1460   -8.9298    1.2868 S   0  0  0  0  0  0  0  0  0  0  0  0
   -2.9508  -10.6184    1.5893 C   0  0  0  0  0  0  0  0  0  0  0  0
   -1.6220  -10.9673    1.6886 C   0  0  0  0  0  0  0  0  0  0  0  0
   -0.7181   -9.8853    1.5244 C   0  0  0  0  0  0  0  0  0  0  0  0
    0.7735  -10.0553    1.5971 C   0  0  0  0  0  0  0  0  0  0  0  0
    0.8188   -6.9396    1.0541 S   0  0  0  0  0  0  0  0  0  0  0  0
    1.1763   -2.5832    0.2983 S   0  0  0  0  0  0  0  0  0  0  0  0
    0.9657    1.5849   -0.4366 H   0  0  0  0  0  0  0  0  0  0  0  0
    0.7201    0.2299    0.6874 H   0  0  0  0  0  0  0  0  0  0  0  0
    0.7763   -0.0698   -1.0580 H   0  0  0  0  0  0  0  0  0  0  0  0
    3.2854    2.4676   -0.5243 H   0  0  0  0  0  0  0  0  0  0  0  0
    5.8191    1.7419   -0.3170 H   0  0  0  0  0  0  0  0  0  0  0  0
    4.7563   -3.3222    0.5407 H   0  0  0  0  0  0  0  0  0  0  0  0
    3.3518   -5.4835    0.8761 H   0  0  0  0  0  0  0  0  0  0  0  0
   -1.3567   -4.0401    0.4721 H   0  0  0  0  0  0  0  0  0  0  0  0
   -2.7611   -6.2013    0.8087 H   0  0  0  0  0  0  0  0  0  0  0  0
   -3.8240  -11.2634    1.6782 H   0  0  0  0  0  0  0  0  0  0  0  0
   -1.2900  -11.9903    1.8779 H   0  0  0  0  0  0  0  0  0  0  0  0
    1.0295  -11.1072    1.7914 H   0  0  0  0  0  0  0  0  0  0  0  0
    1.2225   -9.4491    2.4023 H   0  0  0  0  0  0  0  0  0  0  0  0
    1.2720   -9.7588    0.6585 H   0  0  0  0  0  0  0  0  0  0  0  0
  1  2  1  0
  1 23  1  0
  1 24  1  0
  1 25  1  0
  2  3  1  0
  2  6  2  0
  3  4  2  0
  3 26  1  0
  4  5  1  0
  4 27  1  0
  5  6  1  0
  6  7  1  0
  7  8  2  0
  7 22  1  0
  8  9  1  0
  8 28  1  0
  9 10  2  0
  9 29  1  0
 10 11  1  0
 10 22  1  0
 11 12  2  0
 11 21  1  0
 12 13  1  0
 12 30  1  0
 13 14  2  0
 13 31  1  0
 14 15  1  0
 14 21  1  0
 15 16  1  0
 15 19  2  0
 16 17  1  0
 17 18  2  0
 17 32  1  0
 18 19  1  0
 18 33  1  0
 19 20  1  0
 20 34  1  0
 20 35  1  0
 20 36  1  0
M  END

