
     RDKit          3D

 84 92  0  0  0  0  0  0  0  0999 V2000
   -0.8560   -0.3509    0.4024 C   0  0  0  0  0  0  0  0  0  0  0  0
   -0.2535    0.0893   -0.7805 C   0  0  0  0  0  0  0  0  0  0  0  0
    1.1329    0.0305   -0.9282 C   0  0  0  0  0  0  0  0  0  0  0  0
    1.9441   -0.4815    0.1019 C   0  0  0  0  0  0  0  0  0  0  0  0
    3.4080   -0.5007   -0.0829 C   0  0  0  0  0  0  0  0  0  0  0  0
    4.0178    0.4683   -0.8593 N   0  0  0  0  0  0  0  0  0  0  0  0
    5.2959    0.2352   -0.7887 C   0  0  0  0  0  0  0  0  0  0  0  0
    6.3856    0.9740   -1.4181 C   0  0  0  0  0  0  0  0  0  0  0  0
    6.0951    2.1092   -2.1973 C   0  0  0  0  0  0  0  0  0  0  0  0
    7.1193    2.8266   -2.8058 C   0  0  0  0  0  0  0  0  0  0  0  0
    8.4690    2.4431   -2.6639 C   0  0  0  0  0  0  0  0  0  0  0  0
    9.5590    3.2129   -3.3139 C   0  0  0  0  0  0  0  0  0  0  0  0
    9.4873    4.6128   -3.4470 C   0  0  0  0  0  0  0  0  0  0  0  0
   10.5124    5.3365   -4.0519 C   0  0  0  0  0  0  0  0  0  0  0  0
   11.6590    4.6968   -4.5604 C   0  0  0  0  0  0  0  0  0  0  0  0
   12.7504    5.4684   -5.2055 C   0  0  0  0  0  0  0  0  0  0  0  0
   13.1050    6.7538   -4.7463 C   0  0  0  0  0  0  0  0  0  0  0  0
   14.1282    7.4798   -5.3461 C   0  0  0  0  0  0  0  0  0  0  0  0
   14.8369    6.9446   -6.4376 C   0  0  0  0  0  0  0  0  0  0  0  0
   15.9051    7.7248   -7.0536 C   0  0  0  0  0  0  0  0  0  0  0  0
   16.3211    8.9151   -6.7325 N   0  0  0  0  0  0  0  0  0  0  0  0
   17.3570    9.2064   -7.6018 C   0  0  0  0  0  0  0  0  0  0  0  0
   18.1025   10.4720   -7.4619 C   0  0  0  0  0  0  0  0  0  0  0  0
   19.4733   10.5750   -7.7622 C   0  0  0  0  0  0  0  0  0  0  0  0
   20.1504   11.7837   -7.5891 C   0  0  0  0  0  0  0  0  0  0  0  0
   19.4745   12.9089   -7.1066 C   0  0  0  0  0  0  0  0  0  0  0  0
   18.1163   12.8126   -6.7873 C   0  0  0  0  0  0  0  0  0  0  0  0
   17.4373   11.6052   -6.9573 C   0  0  0  0  0  0  0  0  0  0  0  0
   17.5091    8.1388   -8.4733 C   0  0  0  0  0  0  0  0  0  0  0  0
   18.3245    7.8178   -9.6456 C   0  0  0  0  0  0  0  0  0  0  0  0
   18.6205    6.4735   -9.9508 C   0  0  0  0  0  0  0  0  0  0  0  0
   19.3754    6.1500  -11.0786 C   0  0  0  0  0  0  0  0  0  0  0  0
   19.8481    7.1577  -11.9250 C   0  0  0  0  0  0  0  0  0  0  0  0
   19.5504    8.4942  -11.6380 C   0  0  0  0  0  0  0  0  0  0  0  0
   18.7928    8.8239  -10.5142 C   0  0  0  0  0  0  0  0  0  0  0  0
   16.5879    7.1926   -8.0968 O   0  0  0  0  0  0  0  0  0  0  0  0
   14.4918    5.6647   -6.9069 C   0  0  0  0  0  0  0  0  0  0  0  0
   13.4682    4.9431   -6.2979 C   0  0  0  0  0  0  0  0  0  0  0  0
   11.7290    3.2965   -4.4310 C   0  0  0  0  0  0  0  0  0  0  0  0
   10.7065    2.5733   -3.8208 C   0  0  0  0  0  0  0  0  0  0  0  0
    8.7464    1.3044   -1.8823 C   0  0  0  0  0  0  0  0  0  0  0  0
    7.7272    0.5807   -1.2686 C   0  0  0  0  0  0  0  0  0  0  0  0
    5.5925   -0.8404   -0.0189 O   0  0  0  0  0  0  0  0  0  0  0  0
    4.3913   -1.3357    0.4255 C   0  0  0  0  0  0  0  0  0  0  0  0
    4.4539   -2.5598    1.2255 C   0  0  0  0  0  0  0  0  0  0  0  0
    5.5962   -2.8321    2.0059 C   0  0  0  0  0  0  0  0  0  0  0  0
    5.6841   -4.0077    2.7519 C   0  0  0  0  0  0  0  0  0  0  0  0
    4.6381   -4.9355    2.7338 C   0  0  0  0  0  0  0  0  0  0  0  0
    3.5048   -4.6807    1.9541 C   0  0  0  0  0  0  0  0  0  0  0  0
    3.4124   -3.5089    1.2030 C   0  0  0  0  0  0  0  0  0  0  0  0
    1.3291   -0.9048    1.2947 C   0  0  0  0  0  0  0  0  0  0  0  0
   -0.0581   -0.8426    1.4404 C   0  0  0  0  0  0  0  0  0  0  0  0
   -1.9417   -0.3028    0.5187 H   0  0  0  0  0  0  0  0  0  0  0  0
   -0.8680    0.4842   -1.5938 H   0  0  0  0  0  0  0  0  0  0  0  0
    1.6094    0.3858   -1.8434 H   0  0  0  0  0  0  0  0  0  0  0  0
    5.0532    2.4102   -2.3197 H   0  0  0  0  0  0  0  0  0  0  0  0
    6.8671    3.6897   -3.4257 H   0  0  0  0  0  0  0  0  0  0  0  0
    8.6209    5.1489   -3.0531 H   0  0  0  0  0  0  0  0  0  0  0  0
   10.4120    6.4201   -4.1469 H   0  0  0  0  0  0  0  0  0  0  0  0
   12.5856    7.1798   -3.8851 H   0  0  0  0  0  0  0  0  0  0  0  0
   14.4030    8.4686   -4.9748 H   0  0  0  0  0  0  0  0  0  0  0  0
   20.0189    9.6981   -8.1153 H   0  0  0  0  0  0  0  0  0  0  0  0
   21.2167   11.8433   -7.8226 H   0  0  0  0  0  0  0  0  0  0  0  0
   20.0065   13.8541   -6.9716 H   0  0  0  0  0  0  0  0  0  0  0  0
   17.5819   13.6840   -6.4000 H   0  0  0  0  0  0  0  0  0  0  0  0
   16.3810   11.5206   -6.6962 H   0  0  0  0  0  0  0  0  0  0  0  0
   18.2560    5.6833   -9.2920 H   0  0  0  0  0  0  0  0  0  0  0  0
   19.5984    5.1024  -11.2963 H   0  0  0  0  0  0  0  0  0  0  0  0
   20.4404    6.9030  -12.8073 H   0  0  0  0  0  0  0  0  0  0  0  0
   19.9015    9.2883  -12.3020 H   0  0  0  0  0  0  0  0  0  0  0  0
   18.5465    9.8680  -10.3154 H   0  0  0  0  0  0  0  0  0  0  0  0
   15.0240    5.2416   -7.7606 H   0  0  0  0  0  0  0  0  0  0  0  0
   13.2017    3.9616   -6.6959 H   0  0  0  0  0  0  0  0  0  0  0  0
   12.6090    2.7639   -4.7986 H   0  0  0  0  0  0  0  0  0  0  0  0
   10.7937    1.4865   -3.7525 H   0  0  0  0  0  0  0  0  0  0  0  0
    9.7825    0.9942   -1.7311 H   0  0  0  0  0  0  0  0  0  0  0  0
    7.9685   -0.2942   -0.6624 H   0  0  0  0  0  0  0  0  0  0  0  0
    6.4146   -2.1102    2.0251 H   0  0  0  0  0  0  0  0  0  0  0  0
    6.5758   -4.1990    3.3544 H   0  0  0  0  0  0  0  0  0  0  0  0
    4.7078   -5.8555    3.3194 H   0  0  0  0  0  0  0  0  0  0  0  0
    2.6888   -5.4071    1.9205 H   0  0  0  0  0  0  0  0  0  0  0  0
    2.5346   -3.3342    0.5792 H   0  0  0  0  0  0  0  0  0  0  0  0
    1.9414   -1.2671    2.1225 H   0  0  0  0  0  0  0  0  0  0  0  0
   -0.5177   -1.1706    2.3764 H   0  0  0  0  0  0  0  0  0  0  0  0
  1  2  2  0
  1 52  1  0
  1 53  1  0
  2  3  1  0
  2 54  1  0
  3  4  2  0
  3 55  1  0
  4  5  1  0
  4 51  1  0
  5  6  1  0
  5 44  2  0
  6  7  2  0
  7  8  1  0
  7 43  1  0
  8  9  2  0
  8 42  1  0
  9 10  1  0
  9 56  1  0
 10 11  2  0
 10 57  1  0
 11 12  1  0
 11 41  1  0
 12 13  2  0
 12 40  1  0
 13 14  1  0
 13 58  1  0
 14 15  2  0
 14 59  1  0
 15 16  1  0
 15 39  1  0
 16 17  2  0
 16 38  1  0
 17 18  1  0
 17 60  1  0
 18 19  2  0
 18 61  1  0
 19 20  1  0
 19 37  1  0
 20 21  2  0
 20 36  1  0
 21 22  1  0
 22 23  1  0
 22 29  2  0
 23 24  2  0
 23 28  1  0
 24 25  1  0
 24 62  1  0
 25 26  2  0
 25 63  1  0
 26 27  1  0
 26 64  1  0
 27 28  2  0
 27 65  1  0
 28 66  1  0
 29 30  1  0
 29 36  1  0
 30 31  2  0
 30 35  1  0
 31 32  1  0
 31 67  1  0
 32 33  2  0
 32 68  1  0
 33 34  1  0
 33 69  1  0
 34 35  2  0
 34 70  1  0
 35 71  1  0
 37 38  2  0
 37 72  1  0
 38 73  1  0
 39 40  2  0
 39 74  1  0
 40 75  1  0
 41 42  2  0
 41 76  1  0
 42 77  1  0
 43 44  1  0
 44 45  1  0
 45 46  2  0
 45 50  1  0
 46 47  1  0
 46 78  1  0
 47 48  2  0
 47 79  1  0
 48 49  1  0
 48 80  1  0
 49 50  2  0
 49 81  1  0
 50 82  1  0
 51 52  2  0
 51 83  1  0
 52 84  1  0
M  END

