
     RDKit          3D

 18 18  0  0  0  0  0  0  0  0999 V2000
    0.9425   -0.0458    0.1122 C   0  0  0  0  0  0  0  0  0  0  0  0
    2.4374   -0.0058   -0.0024 C   0  0  0  0  0  0  0  0  0  0  0  0
    3.1518    1.1367   -0.1036 C   0  0  0  0  0  0  0  0  0  0  0  0
    4.5439    1.1617   -0.2149 N   0  0  0  0  0  0  0  0  0  0  0  0
    5.2666    2.4078   -0.3278 C   0  0  1  0  0  0  0  0  0  0  0  0
    4.4023    3.4295   -0.2855 F   0  0  0  0  0  0  0  0  0  0  0  0
    6.1298    2.5623    0.6710 F   0  0  0  0  0  0  0  0  0  0  0  0
    5.9295    2.4832   -1.4777 F   0  0  0  0  0  0  0  0  0  0  0  0
    5.3165   -0.0265   -0.2345 C   0  0  0  0  0  0  0  0  0  0  0  0
    6.5182   -0.0291   -0.3375 O   0  0  0  0  0  0  0  0  0  0  0  0
    4.5492   -1.1684   -0.1222 N   0  0  0  0  0  0  0  0  0  0  0  0
    5.0757   -2.0395   -0.1327 H   0  0  0  0  0  0  0  0  0  0  0  0
    3.1545   -1.2916   -0.0056 C   0  0  0  0  0  0  0  0  0  0  0  0
    2.6329   -2.3841    0.0758 O   0  0  0  0  0  0  0  0  0  0  0  0
    0.5112    0.9655    0.1189 H   0  0  0  0  0  0  0  0  0  0  0  0
    0.6378   -0.5680    1.0333 H   0  0  0  0  0  0  0  0  0  0  0  0
    0.5034   -0.6124   -0.7247 H   0  0  0  0  0  0  0  0  0  0  0  0
    2.6729    2.1142   -0.1050 H   0  0  0  0  0  0  0  0  0  0  0  0
  1  2  1  0
  1 15  1  0
  1 16  1  0
  1 17  1  0
  2  3  2  0
  2 13  1  0
  3  4  1  0
  3 18  1  0
  4  5  1  0
  4  9  1  0
  5  6  1  6
  5  7  1  0
  5  8  1  0
  9 10  2  0
  9 11  1  0
 11 12  1  0
 11 13  1  0
 13 14  2  0
M  END

