
     RDKit          3D

 36 38  0  0  0  0  0  0  0  0999 V2000
    1.3963   -0.0459    0.5062 C   0  0  0  0  0  0  0  0  0  0  0  0
    2.6475   -0.1869   -0.1299 O   0  0  0  0  0  0  0  0  0  0  0  0
    3.0753   -1.4198   -0.4909 C   0  0  0  0  0  0  0  0  0  0  0  0
    4.3348   -1.4806   -1.1177 C   0  0  0  0  0  0  0  0  0  0  0  0
    4.8651   -2.6953   -1.5283 C   0  0  0  0  0  0  0  0  0  0  0  0
    4.1372   -3.8769   -1.3161 C   0  0  0  0  0  0  0  0  0  0  0  0
    4.6773   -5.1249   -1.7365 N   0  0  0  0  0  0  0  0  0  0  0  0
    5.8503   -5.2258   -2.3091 N   0  0  0  0  0  0  0  0  0  0  0  0
    5.9988   -6.5375   -2.5526 C   0  0  0  0  0  0  0  0  0  0  0  0
    7.1550   -7.0380   -3.2116 C   0  0  0  0  0  0  0  0  0  0  0  0
    8.0870   -7.4702   -3.7553 N   0  0  0  0  0  0  0  0  0  0  0  0
    4.8210   -7.2130   -2.0779 C   0  0  0  0  0  0  0  0  0  0  0  0
    4.4628   -8.5348   -2.1371 N   0  0  0  0  0  0  0  0  0  0  0  0
    3.2014   -8.9361   -1.5149 C   0  0  0  0  0  0  0  0  0  0  0  0
    2.7249  -10.2522   -2.1223 C   0  0  0  0  0  0  0  0  0  0  0  0
    3.7169  -11.2539   -2.0429 O   0  0  0  0  0  0  0  0  0  0  0  0
    4.8918  -10.8689   -2.7246 C   0  0  0  0  0  0  0  0  0  0  0  0
    5.4814   -9.5856   -2.1460 C   0  0  0  0  0  0  0  0  0  0  0  0
    4.0182   -6.2793   -1.5613 N   0  0  0  0  0  0  0  0  0  0  0  0
    2.8878   -3.8317   -0.6949 C   0  0  0  0  0  0  0  0  0  0  0  0
    2.3557   -2.6068   -0.2824 C   0  0  0  0  0  0  0  0  0  0  0  0
    1.2655    1.0262    0.7042 H   0  0  0  0  0  0  0  0  0  0  0  0
    1.3592   -0.5939    1.4649 H   0  0  0  0  0  0  0  0  0  0  0  0
    0.5676   -0.3948   -0.1359 H   0  0  0  0  0  0  0  0  0  0  0  0
    4.8822   -0.5489   -1.2724 H   0  0  0  0  0  0  0  0  0  0  0  0
    5.8398   -2.7454   -2.0133 H   0  0  0  0  0  0  0  0  0  0  0  0
    2.4548   -8.1475   -1.6781 H   0  0  0  0  0  0  0  0  0  0  0  0
    3.3283   -9.0531   -0.4193 H   0  0  0  0  0  0  0  0  0  0  0  0
    2.4326  -10.0843   -3.1796 H   0  0  0  0  0  0  0  0  0  0  0  0
    1.8447  -10.6225   -1.5753 H   0  0  0  0  0  0  0  0  0  0  0  0
    4.6805  -10.7212   -3.8037 H   0  0  0  0  0  0  0  0  0  0  0  0
    5.6130  -11.6934   -2.6225 H   0  0  0  0  0  0  0  0  0  0  0  0
    6.3432   -9.2780   -2.7517 H   0  0  0  0  0  0  0  0  0  0  0  0
    5.8421   -9.7800   -1.1151 H   0  0  0  0  0  0  0  0  0  0  0  0
    2.3361   -4.7575   -0.5355 H   0  0  0  0  0  0  0  0  0  0  0  0
    1.3787   -2.5947    0.2003 H   0  0  0  0  0  0  0  0  0  0  0  0
  1  2  1  0
  1 22  1  0
  1 23  1  0
  1 24  1  0
  2  3  1  0
  3  4  2  0
  3 21  1  0
  4  5  1  0
  4 25  1  0
  5  6  2  0
  5 26  1  0
  6  7  1  0
  6 20  1  0
  7  8  1  0
  7 19  1  0
  8  9  2  0
  9 10  1  0
  9 12  1  0
 10 11  3  0
 12 13  1  0
 12 19  2  0
 13 14  1  0
 13 18  1  0
 14 15  1  0
 14 27  1  0
 14 28  1  0
 15 16  1  0
 15 29  1  0
 15 30  1  0
 16 17  1  0
 17 18  1  0
 17 31  1  0
 17 32  1  0
 18 33  1  0
 18 34  1  0
 20 21  2  0
 20 35  1  0
 21 36  1  0
M  END

