
     RDKit          3D

 50 54  0  0  0  0  0  0  0  0999 V2000
    1.4217   -0.0598   -0.1923 C   0  0  0  0  0  0  0  0  0  0  0  0
    2.8162   -0.0287    0.0209 O   0  0  0  0  0  0  0  0  0  0  0  0
    3.3438    0.8994    0.8528 C   0  0  0  0  0  0  0  0  0  0  0  0
    2.5977    1.8661    1.5475 C   0  0  0  0  0  0  0  0  0  0  0  0
    3.2490    2.7833    2.3749 C   0  0  0  0  0  0  0  0  0  0  0  0
    4.6465    2.7666    2.5553 C   0  0  0  0  0  0  0  0  0  0  0  0
    5.3250    3.7393    3.4417 C   0  0  0  0  0  0  0  0  0  0  0  0
    5.2044    5.1489    3.1826 C   0  0  0  0  0  0  0  0  0  0  0  0
    4.5088    5.6572    2.0541 C   0  0  0  0  0  0  0  0  0  0  0  0
    4.3785    7.0302    1.8177 C   0  0  0  0  0  0  0  0  0  0  0  0
    4.9646    7.9467    2.6929 C   0  0  0  0  0  0  0  0  0  0  0  0
    5.6976    7.4783    3.7915 C   0  0  0  0  0  0  0  0  0  0  0  0
    5.8451    6.1017    4.0549 C   0  0  0  0  0  0  0  0  0  0  0  0
    6.6485    5.6264    5.1620 C   0  0  0  0  0  0  0  0  0  0  0  0
    7.2928    6.5445    5.9980 C   0  0  0  0  0  0  0  0  0  0  0  0
    7.8608    7.3538    6.7338 C   0  0  0  0  0  0  0  0  0  0  0  0
    8.5127    8.2817    7.5776 C   0  0  0  0  0  0  0  0  0  0  0  0
    8.3933    9.6794    7.3548 C   0  0  0  0  0  0  0  0  0  0  0  0
    9.0383   10.5869    8.1890 C   0  0  0  0  0  0  0  0  0  0  0  0
    9.8164   10.1359    9.2641 C   0  0  0  0  0  0  0  0  0  0  0  0
    9.9441    8.7596    9.4977 C   0  0  0  0  0  0  0  0  0  0  0  0
    9.3052    7.8410    8.6709 C   0  0  0  0  0  0  0  0  0  0  0  0
    6.7884    4.2064    5.4084 C   0  0  0  0  0  0  0  0  0  0  0  0
    7.5592    3.7191    6.4829 C   0  0  0  0  0  0  0  0  0  0  0  0
    7.6585    2.3491    6.7600 C   0  0  0  0  0  0  0  0  0  0  0  0
    6.9605    1.4359    5.9673 C   0  0  0  0  0  0  0  0  0  0  0  0
    6.1874    1.8911    4.8935 C   0  0  0  0  0  0  0  0  0  0  0  0
    6.1021    3.2676    4.5561 C   0  0  0  0  0  0  0  0  0  0  0  0
    5.3738    1.7767    1.8510 C   0  0  0  0  0  0  0  0  0  0  0  0
    4.7425    0.8688    1.0127 C   0  0  0  0  0  0  0  0  0  0  0  0
    1.2317   -0.8805   -0.8967 H   0  0  0  0  0  0  0  0  0  0  0  0
    1.0530    0.8838   -0.6333 H   0  0  0  0  0  0  0  0  0  0  0  0
    0.8678   -0.2556    0.7433 H   0  0  0  0  0  0  0  0  0  0  0  0
    1.5120    1.9098    1.4579 H   0  0  0  0  0  0  0  0  0  0  0  0
    2.6519    3.5205    2.9166 H   0  0  0  0  0  0  0  0  0  0  0  0
    4.0753    4.9578    1.3400 H   0  0  0  0  0  0  0  0  0  0  0  0
    3.8250    7.3763    0.9413 H   0  0  0  0  0  0  0  0  0  0  0  0
    4.8691    9.0214    2.5205 H   0  0  0  0  0  0  0  0  0  0  0  0
    6.1802    8.1907    4.4624 H   0  0  0  0  0  0  0  0  0  0  0  0
    7.7875   10.0329    6.5178 H   0  0  0  0  0  0  0  0  0  0  0  0
    8.9353   11.6590    8.0020 H   0  0  0  0  0  0  0  0  0  0  0  0
   10.3207   10.8531    9.9164 H   0  0  0  0  0  0  0  0  0  0  0  0
   10.5496    8.4022   10.3347 H   0  0  0  0  0  0  0  0  0  0  0  0
    9.4062    6.7693    8.8545 H   0  0  0  0  0  0  0  0  0  0  0  0
    8.0813    4.4379    7.1164 H   0  0  0  0  0  0  0  0  0  0  0  0
    8.2675    2.0064    7.6000 H   0  0  0  0  0  0  0  0  0  0  0  0
    7.0057    0.3657    6.1837 H   0  0  0  0  0  0  0  0  0  0  0  0
    5.6232    1.1654    4.3087 H   0  0  0  0  0  0  0  0  0  0  0  0
    6.4610    1.7430    1.9520 H   0  0  0  0  0  0  0  0  0  0  0  0
    5.3109    0.1201    0.4568 H   0  0  0  0  0  0  0  0  0  0  0  0
  1  2  1  0
  1 31  1  0
  1 32  1  0
  1 33  1  0
  2  3  1  0
  3  4  2  0
  3 30  1  0
  4  5  1  0
  4 34  1  0
  5  6  2  0
  5 35  1  0
  6  7  1  0
  6 29  1  0
  7  8  1  0
  7 28  2  0
  8  9  2  0
  8 13  1  0
  9 10  1  0
  9 36  1  0
 10 11  2  0
 10 37  1  0
 11 12  1  0
 11 38  1  0
 12 13  2  0
 12 39  1  0
 13 14  1  0
 14 15  1  0
 14 23  2  0
 15 16  3  0
 16 17  1  0
 17 18  2  0
 17 22  1  0
 18 19  1  0
 18 40  1  0
 19 20  2  0
 19 41  1  0
 20 21  1  0
 20 42  1  0
 21 22  2  0
 21 43  1  0
 22 44  1  0
 23 24  1  0
 23 28  1  0
 24 25  2  0
 24 45  1  0
 25 26  1  0
 25 46  1  0
 26 27  2  0
 26 47  1  0
 27 28  1  0
 27 48  1  0
 29 30  2  0
 29 49  1  0
 30 50  1  0
M  END

