
     RDKit          3D

 51 52  0  0  0  0  0  0  0  0999 V2000
    0.7234   -0.4889   -0.2515 C   0  0  0  0  0  0  0  0  0  0  0  0
    2.2448   -0.3410   -0.2035 C   0  0  0  0  0  0  0  0  0  0  0  0
    2.7768    0.8137   -1.0582 C   0  0  0  0  0  0  0  0  0  0  0  0
    4.2994    0.9714   -1.0112 C   0  0  0  0  0  0  0  0  0  0  0  0
    4.8326    2.1204   -1.8723 C   0  0  0  0  0  0  0  0  0  0  0  0
    6.3546    2.2822   -1.8174 C   0  0  0  0  0  0  0  0  0  0  0  0
    6.8924    3.4213   -2.6925 C   0  0  0  0  0  0  0  0  0  0  0  0
    8.4204    3.5834   -2.6262 C   0  0  0  0  0  0  0  0  0  0  0  0
    9.1649    4.9960   -3.6670 Si  0  0  1  0  0  4  0  0  0  0  0  0
    8.6870    4.8314   -5.4948 C   0  0  0  0  0  0  0  0  0  0  0  0
    8.4543    6.6393   -3.0457 C   0  0  0  0  0  0  0  0  0  0  0  0
   11.0639    5.0227   -3.4567 C   0  0  0  0  0  0  0  0  0  0  0  0
   11.6443    6.1437   -2.8741 C   0  0  0  0  0  0  0  0  0  0  0  0
   13.0423    6.2613   -2.6717 C   0  0  0  0  0  0  0  0  0  0  0  0
   13.8824    5.2431   -3.0577 C   0  0  0  0  0  0  0  0  0  0  0  0
   13.3588    4.0661   -3.6611 C   0  0  0  0  0  0  0  0  0  0  0  0
   14.2181    3.0057   -4.0654 C   0  0  0  0  0  0  0  0  0  0  0  0
   13.7154    1.8638   -4.6504 C   0  0  0  0  0  0  0  0  0  0  0  0
   12.3205    1.7376   -4.8559 C   0  0  0  0  0  0  0  0  0  0  0  0
   11.4634    2.7497   -4.4743 C   0  0  0  0  0  0  0  0  0  0  0  0
   11.9382    3.9489   -3.8647 C   0  0  0  0  0  0  0  0  0  0  0  0
    0.3771   -1.3289    0.3719 H   0  0  0  0  0  0  0  0  0  0  0  0
    0.3703   -0.6712   -1.2805 H   0  0  0  0  0  0  0  0  0  0  0  0
    0.2202    0.4234    0.1109 H   0  0  0  0  0  0  0  0  0  0  0  0
    2.7179   -1.2839   -0.5340 H   0  0  0  0  0  0  0  0  0  0  0  0
    2.5687   -0.1964    0.8435 H   0  0  0  0  0  0  0  0  0  0  0  0
    2.3018    1.7577   -0.7309 H   0  0  0  0  0  0  0  0  0  0  0  0
    2.4568    0.6677   -2.1070 H   0  0  0  0  0  0  0  0  0  0  0  0
    4.7740    0.0254   -1.3324 H   0  0  0  0  0  0  0  0  0  0  0  0
    4.6179    1.1229    0.0372 H   0  0  0  0  0  0  0  0  0  0  0  0
    4.3535    3.0659   -1.5560 H   0  0  0  0  0  0  0  0  0  0  0  0
    4.5195    1.9647   -2.9217 H   0  0  0  0  0  0  0  0  0  0  0  0
    6.8355    1.3343   -2.1230 H   0  0  0  0  0  0  0  0  0  0  0  0
    6.6682    2.4504   -0.7703 H   0  0  0  0  0  0  0  0  0  0  0  0
    6.3999    4.3642   -2.3916 H   0  0  0  0  0  0  0  0  0  0  0  0
    6.5779    3.2442   -3.7376 H   0  0  0  0  0  0  0  0  0  0  0  0
    8.9039    2.6315   -2.9079 H   0  0  0  0  0  0  0  0  0  0  0  0
    8.7295    3.7610   -1.5787 H   0  0  0  0  0  0  0  0  0  0  0  0
    7.5946    4.9194   -5.6164 H   0  0  0  0  0  0  0  0  0  0  0  0
    8.9972    3.8747   -5.9424 H   0  0  0  0  0  0  0  0  0  0  0  0
    9.1535    5.6381   -6.0841 H   0  0  0  0  0  0  0  0  0  0  0  0
    7.3613    6.6501   -3.1888 H   0  0  0  0  0  0  0  0  0  0  0  0
    8.8641    7.5000   -3.5989 H   0  0  0  0  0  0  0  0  0  0  0  0
    8.6492    6.7989   -1.9727 H   0  0  0  0  0  0  0  0  0  0  0  0
   11.0152    6.9770   -2.5525 H   0  0  0  0  0  0  0  0  0  0  0  0
   13.4457    7.1653   -2.2079 H   0  0  0  0  0  0  0  0  0  0  0  0
   14.9628    5.3227   -2.9076 H   0  0  0  0  0  0  0  0  0  0  0  0
   15.2940    3.1154   -3.9016 H   0  0  0  0  0  0  0  0  0  0  0  0
   14.3873    1.0578   -4.9560 H   0  0  0  0  0  0  0  0  0  0  0  0
   11.9201    0.8326   -5.3201 H   0  0  0  0  0  0  0  0  0  0  0  0
   10.3940    2.6236   -4.6451 H   0  0  0  0  0  0  0  0  0  0  0  0
  1  2  1  0
  1 22  1  0
  1 23  1  0
  1 24  1  0
  2  3  1  0
  2 25  1  0
  2 26  1  0
  3  4  1  0
  3 27  1  0
  3 28  1  0
  4  5  1  0
  4 29  1  0
  4 30  1  0
  5  6  1  0
  5 31  1  0
  5 32  1  0
  6  7  1  0
  6 33  1  0
  6 34  1  0
  7  8  1  0
  7 35  1  0
  7 36  1  0
  9  8  1  1
  8 37  1  0
  8 38  1  0
  9 10  1  0
  9 11  1  0
  9 12  1  0
 10 39  1  0
 10 40  1  0
 10 41  1  0
 11 42  1  0
 11 43  1  0
 11 44  1  0
 12 13  2  0
 12 21  1  0
 13 14  1  0
 13 45  1  0
 14 15  2  0
 14 46  1  0
 15 16  1  0
 15 47  1  0
 16 17  1  0
 16 21  2  0
 17 18  2  0
 17 48  1  0
 18 19  1  0
 18 49  1  0
 19 20  2  0
 19 50  1  0
 20 21  1  0
 20 51  1  0
M  END

