
     RDKit          3D

102111  0  0  0  0  0  0  0  0999 V2000
    2.5640    0.8607    1.1310 C   0  0  0  0  0  0  0  0  0  0  0  0
    2.1652   -0.0550   -0.0395 C   0  0  1  0  0  0  0  0  0  0  0  0
    0.6719   -0.4258    0.0007 C   0  0  0  0  0  0  0  0  0  0  0  0
    2.5511    0.5501   -1.3850 C   0  0  0  0  0  0  0  0  0  0  0  0
    2.0076    1.7821   -1.7753 C   0  0  0  0  0  0  0  0  0  0  0  0
    2.3392    2.3606   -2.9990 C   0  0  0  0  0  0  0  0  0  0  0  0
    3.2249    1.7132   -3.8584 C   0  0  0  0  0  0  0  0  0  0  0  0
    3.7929    0.4777   -3.5169 C   0  0  0  0  0  0  0  0  0  0  0  0
    4.7661   -0.1982   -4.4769 C   0  0  1  0  0  0  0  0  0  0  0  0
    4.1145   -0.4921   -5.8393 C   0  0  0  0  0  0  0  0  0  0  0  0
    6.0635    0.6177   -4.6225 C   0  0  0  0  0  0  0  0  0  0  0  0
    3.4409   -0.0860   -2.2738 C   0  0  0  0  0  0  0  0  0  0  0  0
    4.0118   -1.3661   -1.8990 N   0  0  0  0  0  0  0  0  0  0  0  0
    5.2683   -1.3539   -1.2612 C   0  0  0  0  0  0  0  0  0  0  0  0
    5.8419   -0.3032   -1.0299 O   0  0  0  0  0  0  0  0  0  0  0  0
    5.8420   -2.6700   -0.8987 C   0  0  0  0  0  0  0  0  0  0  0  0
    7.0985   -2.7188   -0.2653 C   0  0  0  0  0  0  0  0  0  0  0  0
    7.6629   -3.9348    0.0844 C   0  0  0  0  0  0  0  0  0  0  0  0
    6.9923   -5.1612   -0.1835 C   0  0  0  0  0  0  0  0  0  0  0  0
    7.5492   -6.4087    0.1640 C   0  0  0  0  0  0  0  0  0  0  0  0
    6.8982   -7.6266   -0.0931 C   0  0  0  0  0  0  0  0  0  0  0  0
    5.6062   -7.6127   -0.7390 C   0  0  0  0  0  0  0  0  0  0  0  0
    4.9552   -8.8306   -0.9961 C   0  0  0  0  0  0  0  0  0  0  0  0
    5.5121  -10.0782   -0.6486 C   0  0  0  0  0  0  0  0  0  0  0  0
    4.8414  -11.3045   -0.9165 C   0  0  0  0  0  0  0  0  0  0  0  0
    5.4059  -12.5206   -0.5668 C   0  0  0  0  0  0  0  0  0  0  0  0
    6.6624  -12.5693    0.0666 C   0  0  0  0  0  0  0  0  0  0  0  0
    7.3632  -11.3729    0.3516 C   0  0  0  0  0  0  0  0  0  0  0  0
    8.6294  -11.4227    0.9904 C   0  0  0  0  0  0  0  0  0  0  0  0
    9.3105  -10.2336    1.2623 C   0  0  0  0  0  0  0  0  0  0  0  0
    8.7606   -9.0022    0.9152 C   0  0  0  0  0  0  0  0  0  0  0  0
    7.4957   -8.9046    0.2773 C   0  0  0  0  0  0  0  0  0  0  0  0
    6.7965  -10.1099   -0.0041 C   0  0  0  0  0  0  0  0  0  0  0  0
    9.2373  -12.7187    1.3730 C   0  0  0  0  0  0  0  0  0  0  0  0
   10.3220  -12.7982    1.9227 O   0  0  0  0  0  0  0  0  0  0  0  0
    8.4925  -13.8732    1.0669 N   0  0  0  0  0  0  0  0  0  0  0  0
    9.0635  -15.1534    1.4417 C   0  0  0  0  0  0  0  0  0  0  0  0
    8.7114  -15.7172    2.6847 C   0  0  0  0  0  0  0  0  0  0  0  0
    7.7382  -15.0413    3.6448 C   0  0  1  0  0  0  0  0  0  0  0  0
    6.4411  -15.8574    3.7909 C   0  0  0  0  0  0  0  0  0  0  0  0
    8.3901  -14.7469    5.0069 C   0  0  0  0  0  0  0  0  0  0  0  0
    9.2793  -16.9527    3.0262 C   0  0  0  0  0  0  0  0  0  0  0  0
   10.1651  -17.6000    2.1669 C   0  0  0  0  0  0  0  0  0  0  0  0
   10.4968  -17.0215    0.9432 C   0  0  0  0  0  0  0  0  0  0  0  0
    9.9533  -15.7894    0.5529 C   0  0  0  0  0  0  0  0  0  0  0  0
   10.3393  -15.1843   -0.7926 C   0  0  1  0  0  0  0  0  0  0  0  0
   11.8326  -14.8135   -0.8326 C   0  0  0  0  0  0  0  0  0  0  0  0
    9.9406  -16.0999   -1.9630 C   0  0  0  0  0  0  0  0  0  0  0  0
    7.2361  -13.8855    0.4291 C   0  0  0  0  0  0  0  0  0  0  0  0
    6.6625  -14.9362    0.1977 O   0  0  0  0  0  0  0  0  0  0  0  0
    5.0087   -6.3347   -1.1093 C   0  0  0  0  0  0  0  0  0  0  0  0
    3.7437   -6.2372   -1.7473 C   0  0  0  0  0  0  0  0  0  0  0  0
    3.1939   -5.0058   -2.0944 C   0  0  0  0  0  0  0  0  0  0  0  0
    3.8749   -3.8167   -1.8225 C   0  0  0  0  0  0  0  0  0  0  0  0
    5.1412   -3.8665   -1.1837 C   0  0  0  0  0  0  0  0  0  0  0  0
    5.7079   -5.1294   -0.8280 C   0  0  0  0  0  0  0  0  0  0  0  0
    3.2671   -2.5207   -2.2051 C   0  0  0  0  0  0  0  0  0  0  0  0
    2.1823   -2.4412   -2.7547 O   0  0  0  0  0  0  0  0  0  0  0  0
    2.3408    0.3748    2.0951 H   0  0  0  0  0  0  0  0  0  0  0  0
    2.0138    1.8155    1.1072 H   0  0  0  0  0  0  0  0  0  0  0  0
    3.6403    1.0907    1.1018 H   0  0  0  0  0  0  0  0  0  0  0  0
    2.7311   -0.9903    0.0833 H   0  0  0  0  0  0  0  0  0  0  0  0
    0.0319    0.4670   -0.0914 H   0  0  0  0  0  0  0  0  0  0  0  0
    0.4197   -0.9188    0.9541 H   0  0  0  0  0  0  0  0  0  0  0  0
    0.4175   -1.1111   -0.8221 H   0  0  0  0  0  0  0  0  0  0  0  0
    1.3122    2.2972   -1.1083 H   0  0  0  0  0  0  0  0  0  0  0  0
    1.9052    3.3225   -3.2843 H   0  0  0  0  0  0  0  0  0  0  0  0
    3.4815    2.1756   -4.8145 H   0  0  0  0  0  0  0  0  0  0  0  0
    5.0461   -1.1695   -4.0432 H   0  0  0  0  0  0  0  0  0  0  0  0
    3.8332    0.4348   -6.3652 H   0  0  0  0  0  0  0  0  0  0  0  0
    3.2049   -1.1007   -5.7186 H   0  0  0  0  0  0  0  0  0  0  0  0
    4.8133   -1.0419   -6.4910 H   0  0  0  0  0  0  0  0  0  0  0  0
    5.8710    1.6030   -5.0780 H   0  0  0  0  0  0  0  0  0  0  0  0
    6.7846    0.0884   -5.2671 H   0  0  0  0  0  0  0  0  0  0  0  0
    6.5322    0.7842   -3.6407 H   0  0  0  0  0  0  0  0  0  0  0  0
    7.6081   -1.7757   -0.0615 H   0  0  0  0  0  0  0  0  0  0  0  0
    8.6392   -3.9629    0.5748 H   0  0  0  0  0  0  0  0  0  0  0  0
    8.5241   -6.4007    0.6504 H   0  0  0  0  0  0  0  0  0  0  0  0
    3.9802   -8.8386   -1.4824 H   0  0  0  0  0  0  0  0  0  0  0  0
    3.8651  -11.2765   -1.4069 H   0  0  0  0  0  0  0  0  0  0  0  0
    4.8963  -13.4637   -0.7707 H   0  0  0  0  0  0  0  0  0  0  0  0
   10.2831  -10.2968    1.7534 H   0  0  0  0  0  0  0  0  0  0  0  0
    9.3289   -8.1021    1.1471 H   0  0  0  0  0  0  0  0  0  0  0  0
    7.4579  -14.0701    3.2108 H   0  0  0  0  0  0  0  0  0  0  0  0
    6.6338  -16.8425    4.2466 H   0  0  0  0  0  0  0  0  0  0  0  0
    5.9721  -16.0242    2.8092 H   0  0  0  0  0  0  0  0  0  0  0  0
    5.7199  -15.3280    4.4355 H   0  0  0  0  0  0  0  0  0  0  0  0
    8.6718  -15.6737    5.5329 H   0  0  0  0  0  0  0  0  0  0  0  0
    7.6913  -14.1971    5.6587 H   0  0  0  0  0  0  0  0  0  0  0  0
    9.2995  -14.1381    4.8858 H   0  0  0  0  0  0  0  0  0  0  0  0
    9.0227  -17.4151    3.9822 H   0  0  0  0  0  0  0  0  0  0  0  0
   10.5991  -18.5620    2.4522 H   0  0  0  0  0  0  0  0  0  0  0  0
   11.1924  -17.5365    0.2762 H   0  0  0  0  0  0  0  0  0  0  0  0
    9.7735  -14.2489   -0.9153 H   0  0  0  0  0  0  0  0  0  0  0  0
   12.4726  -15.7064   -0.7405 H   0  0  0  0  0  0  0  0  0  0  0  0
   12.0870  -14.1282   -0.0098 H   0  0  0  0  0  0  0  0  0  0  0  0
   12.0848  -14.3205   -1.7861 H   0  0  0  0  0  0  0  0  0  0  0  0
   10.4908  -17.0547   -1.9393 H   0  0  0  0  0  0  0  0  0  0  0  0
   10.1638  -15.6141   -2.9272 H   0  0  0  0  0  0  0  0  0  0  0  0
    8.8643  -16.3299   -1.9340 H   0  0  0  0  0  0  0  0  0  0  0  0
    3.1755   -7.1373   -1.9792 H   0  0  0  0  0  0  0  0  0  0  0  0
    2.2212   -4.9425   -2.5855 H   0  0  0  0  0  0  0  0  0  0  0  0
  1  2  1  0
  1 59  1  0
  1 60  1  0
  1 61  1  0
  2  3  1  0
  2  4  1  0
  2 62  1  1
  3 63  1  0
  3 64  1  0
  3 65  1  0
  4  5  2  0
  4 12  1  0
  5  6  1  0
  5 66  1  0
  6  7  2  0
  6 67  1  0
  7  8  1  0
  7 68  1  0
  8  9  1  0
  8 12  2  0
  9 10  1  0
  9 11  1  0
  9 69  1  1
 10 70  1  0
 10 71  1  0
 10 72  1  0
 11 73  1  0
 11 74  1  0
 11 75  1  0
 12 13  1  0
 13 14  1  0
 13 57  1  0
 14 15  2  0
 14 16  1  0
 16 17  2  0
 16 55  1  0
 17 18  1  0
 17 76  1  0
 18 19  2  0
 18 77  1  0
 19 20  1  0
 19 56  1  0
 20 21  2  0
 20 78  1  0
 21 22  1  0
 21 32  1  0
 22 23  2  0
 22 51  1  0
 23 24  1  0
 23 79  1  0
 24 25  2  0
 24 33  1  0
 25 26  1  0
 25 80  1  0
 26 27  2  0
 26 81  1  0
 27 28  1  0
 27 49  1  0
 28 29  1  0
 28 33  2  0
 29 30  2  0
 29 34  1  0
 30 31  1  0
 30 82  1  0
 31 32  2  0
 31 83  1  0
 32 33  1  0
 34 35  2  0
 34 36  1  0
 36 37  1  0
 36 49  1  0
 37 38  2  0
 37 45  1  0
 38 39  1  0
 38 42  1  0
 39 40  1  0
 39 41  1  0
 39 84  1  6
 40 85  1  0
 40 86  1  0
 40 87  1  0
 41 88  1  0
 41 89  1  0
 41 90  1  0
 42 43  2  0
 42 91  1  0
 43 44  1  0
 43 92  1  0
 44 45  2  0
 44 93  1  0
 45 46  1  0
 46 47  1  0
 46 48  1  0
 46 94  1  6
 47 95  1  0
 47 96  1  0
 47 97  1  0
 48 98  1  0
 48 99  1  0
 48100  1  0
 49 50  2  0
 51 52  1  0
 51 56  2  0
 52 53  2  0
 52101  1  0
 53 54  1  0
 53102  1  0
 54 55  2  0
 54 57  1  0
 55 56  1  0
 57 58  2  0
M  END

