
     RDKit          3D

 36 38  0  0  0  0  0  0  0  0999 V2000
    1.0278   -0.1880    0.5973 C   0  0  0  0  0  0  0  0  0  0  0  0
    2.4300    0.0149    0.4472 O   0  0  0  0  0  0  0  0  0  0  0  0
    2.8480    0.3919   -0.7821 C   0  0  0  0  0  0  0  0  0  0  0  0
    2.0882    0.5538   -1.7145 O   0  0  0  0  0  0  0  0  0  0  0  0
    4.3171    0.5818   -0.8495 C   0  0  0  0  0  0  0  0  0  0  0  0
    5.1649    0.3859    0.2707 C   0  0  0  0  0  0  0  0  0  0  0  0
    6.5263    0.5762    0.1539 C   0  0  0  0  0  0  0  0  0  0  0  0
    7.1215    0.9731   -1.0904 C   0  0  0  0  0  0  0  0  0  0  0  0
    8.5233    1.1546   -1.1545 C   0  0  0  0  0  0  0  0  0  0  0  0
    9.3179    1.5349   -2.2606 C   0  0  0  0  0  0  0  0  0  0  0  0
    8.9424    1.8175   -3.5286 N   0  0  0  0  0  0  0  0  0  0  0  0
   10.0651    2.1203   -4.1973 C   0  0  0  0  0  0  0  0  0  0  0  0
   10.1504    2.4834   -5.5768 C   0  0  0  0  0  0  0  0  0  0  0  0
    8.9646    2.5461   -6.3621 C   0  0  0  0  0  0  0  0  0  0  0  0
    9.0366    2.8979   -7.7032 C   0  0  0  0  0  0  0  0  0  0  0  0
   10.2755    3.1935   -8.2936 C   0  0  0  0  0  0  0  0  0  0  0  0
   11.4525    3.1340   -7.5260 C   0  0  0  0  0  0  0  0  0  0  0  0
   11.3998    2.7844   -6.1840 C   0  0  0  0  0  0  0  0  0  0  0  0
   11.1853    2.0572   -3.4432 O   0  0  0  0  0  0  0  0  0  0  0  0
   10.7849    1.6783   -2.1454 C   0  0  0  0  0  0  0  0  0  0  0  0
   11.5599    1.5351   -1.2414 O   0  0  0  0  0  0  0  0  0  0  0  0
    6.2449    1.1658   -2.2143 C   0  0  0  0  0  0  0  0  0  0  0  0
    4.8832    0.9729   -2.0839 C   0  0  0  0  0  0  0  0  0  0  0  0
    0.8707   -0.4906    1.6402 H   0  0  0  0  0  0  0  0  0  0  0  0
    0.6687   -0.9730   -0.0863 H   0  0  0  0  0  0  0  0  0  0  0  0
    0.4711    0.7370    0.3805 H   0  0  0  0  0  0  0  0  0  0  0  0
    4.7262    0.0842    1.2223 H   0  0  0  0  0  0  0  0  0  0  0  0
    7.1756    0.4243    1.0204 H   0  0  0  0  0  0  0  0  0  0  0  0
    9.0992    0.9847   -0.2395 H   0  0  0  0  0  0  0  0  0  0  0  0
    8.0089    2.3134   -5.8898 H   0  0  0  0  0  0  0  0  0  0  0  0
    8.1227    2.9444   -8.3009 H   0  0  0  0  0  0  0  0  0  0  0  0
   10.3260    3.4700   -9.3497 H   0  0  0  0  0  0  0  0  0  0  0  0
   12.4155    3.3645   -7.9882 H   0  0  0  0  0  0  0  0  0  0  0  0
   12.3094    2.7365   -5.5830 H   0  0  0  0  0  0  0  0  0  0  0  0
    6.6801    1.4666   -3.1675 H   0  0  0  0  0  0  0  0  0  0  0  0
    4.2126    1.1182   -2.9333 H   0  0  0  0  0  0  0  0  0  0  0  0
  1  2  1  0
  1 24  1  0
  1 25  1  0
  1 26  1  0
  2  3  1  0
  3  4  2  0
  3  5  1  0
  5  6  2  0
  5 23  1  0
  6  7  1  0
  6 27  1  0
  7  8  2  0
  7 28  1  0
  8  9  1  0
  8 22  1  0
  9 10  2  0
  9 29  1  0
 10 11  1  0
 10 20  1  0
 11 12  2  0
 12 13  1  0
 12 19  1  0
 13 14  2  0
 13 18  1  0
 14 15  1  0
 14 30  1  0
 15 16  2  0
 15 31  1  0
 16 17  1  0
 16 32  1  0
 17 18  2  0
 17 33  1  0
 18 34  1  0
 19 20  1  0
 20 21  2  0
 22 23  2  0
 22 35  1  0
 23 36  1  0
M  END

