
     RDKit          3D

 50 55  0  0  0  0  0  0  0  0999 V2000
   -2.7555    4.6628   -2.8171 C   0  0  0  0  0  0  0  0  0  0  0  0
   -3.6581    3.7899   -2.1892 C   0  0  0  0  0  0  0  0  0  0  0  0
   -3.2000    2.6745   -1.4963 C   0  0  0  0  0  0  0  0  0  0  0  0
   -1.8144    2.3941   -1.4085 C   0  0  0  0  0  0  0  0  0  0  0  0
   -1.3250    1.2271   -0.6863 C   0  0  0  0  0  0  0  0  0  0  0  0
   -2.1795    0.3944   -0.0927 N   0  0  0  0  0  0  0  0  0  0  0  0
   -1.7243   -0.6720    0.5644 C   0  0  0  0  0  0  0  0  0  0  0  0
   -2.6511   -1.5873    1.2168 C   0  0  0  0  0  0  0  0  0  0  0  0
   -4.0507   -1.3749    1.1658 C   0  0  0  0  0  0  0  0  0  0  0  0
   -4.9274   -2.2544    1.7919 C   0  0  0  0  0  0  0  0  0  0  0  0
   -4.4432   -3.3726    2.4889 C   0  0  0  0  0  0  0  0  0  0  0  0
   -3.0620   -3.5943    2.5469 C   0  0  0  0  0  0  0  0  0  0  0  0
   -2.1752   -2.7187    1.9223 C   0  0  0  0  0  0  0  0  0  0  0  0
   -0.3486   -0.9523    0.6510 N   0  0  0  0  0  0  0  0  0  0  0  0
    0.3701   -0.0617    0.0286 C   0  0  0  0  0  0  0  0  0  0  0  0
    1.8423   -0.3282    0.0946 N   0  0  0  0  0  0  0  0  0  0  0  0
    2.5836    0.1931    1.1257 C   0  0  0  0  0  0  0  0  0  0  0  0
    2.0189    0.9891    2.1498 C   0  0  0  0  0  0  0  0  0  0  0  0
    2.8243    1.4845    3.1603 C   0  0  0  0  0  0  0  0  0  0  0  0
    4.2080    1.2098    3.1911 C   0  0  0  0  0  0  0  0  0  0  0  0
    4.7866    0.4302    2.1980 C   0  0  0  0  0  0  0  0  0  0  0  0
    3.9804   -0.0727    1.1750 C   0  0  0  0  0  0  0  0  0  0  0  0
    4.5722   -0.8308    0.2182 O   0  0  0  0  0  0  0  0  0  0  0  0
    3.8362   -1.3425   -0.8000 C   0  0  0  0  0  0  0  0  0  0  0  0
    4.4977   -2.1136   -1.7578 C   0  0  0  0  0  0  0  0  0  0  0  0
    3.7696   -2.6498   -2.8120 C   0  0  0  0  0  0  0  0  0  0  0  0
    2.3817   -2.4140   -2.9069 C   0  0  0  0  0  0  0  0  0  0  0  0
    1.7194   -1.6510   -1.9612 C   0  0  0  0  0  0  0  0  0  0  0  0
    2.4376   -1.0938   -0.8773 C   0  0  0  0  0  0  0  0  0  0  0  0
    0.0644    1.0126   -0.6420 N   0  0  0  0  0  0  0  0  0  0  0  0
   -0.9142    3.2821   -2.0453 C   0  0  0  0  0  0  0  0  0  0  0  0
   -1.3831    4.3974   -2.7376 C   0  0  0  0  0  0  0  0  0  0  0  0
   -3.1199    5.5381   -3.3607 H   0  0  0  0  0  0  0  0  0  0  0  0
   -4.7326    3.9865   -2.2438 H   0  0  0  0  0  0  0  0  0  0  0  0
   -3.8992    1.9949   -1.0076 H   0  0  0  0  0  0  0  0  0  0  0  0
   -4.4245   -0.5055    0.6236 H   0  0  0  0  0  0  0  0  0  0  0  0
   -6.0043   -2.0706    1.7390 H   0  0  0  0  0  0  0  0  0  0  0  0
   -5.1358   -4.0610    2.9796 H   0  0  0  0  0  0  0  0  0  0  0  0
   -2.6724   -4.4622    3.0869 H   0  0  0  0  0  0  0  0  0  0  0  0
   -1.0991   -2.8881    1.9655 H   0  0  0  0  0  0  0  0  0  0  0  0
    0.9534    1.2033    2.1296 H   0  0  0  0  0  0  0  0  0  0  0  0
    2.3780    2.0979    3.9449 H   0  0  0  0  0  0  0  0  0  0  0  0
    4.8266    1.6094    3.9966 H   0  0  0  0  0  0  0  0  0  0  0  0
    5.8519    0.1955    2.1877 H   0  0  0  0  0  0  0  0  0  0  0  0
    5.5714   -2.2733   -1.6502 H   0  0  0  0  0  0  0  0  0  0  0  0
    4.2743   -3.2542   -3.5678 H   0  0  0  0  0  0  0  0  0  0  0  0
    1.8173   -2.8389   -3.7388 H   0  0  0  0  0  0  0  0  0  0  0  0
    0.6502   -1.4712   -2.0383 H   0  0  0  0  0  0  0  0  0  0  0  0
    0.1538    3.0724   -1.9815 H   0  0  0  0  0  0  0  0  0  0  0  0
   -0.6698    5.0702   -3.2226 H   0  0  0  0  0  0  0  0  0  0  0  0
  1  2  2  0
  1 32  1  0
  1 33  1  0
  2  3  1  0
  2 34  1  0
  3  4  2  0
  3 35  1  0
  4  5  1  0
  4 31  1  0
  5  6  2  0
  5 30  1  0
  6  7  1  0
  7  8  1  0
  7 14  2  0
  8  9  2  0
  8 13  1  0
  9 10  1  0
  9 36  1  0
 10 11  2  0
 10 37  1  0
 11 12  1  0
 11 38  1  0
 12 13  2  0
 12 39  1  0
 13 40  1  0
 14 15  1  0
 15 16  1  0
 15 30  2  0
 16 17  1  0
 16 29  1  0
 17 18  2  0
 17 22  1  0
 18 19  1  0
 18 41  1  0
 19 20  2  0
 19 42  1  0
 20 21  1  0
 20 43  1  0
 21 22  2  0
 21 44  1  0
 22 23  1  0
 23 24  1  0
 24 25  2  0
 24 29  1  0
 25 26  1  0
 25 45  1  0
 26 27  2  0
 26 46  1  0
 27 28  1  0
 27 47  1  0
 28 29  2  0
 28 48  1  0
 31 32  2  0
 31 49  1  0
 32 50  1  0
M  END

