
     RDKit          3D

123135  0  0  0  0  0  0  0  0999 V2000
   -9.0739   -2.9812    1.1936 C   0  0  0  0  0  0  0  0  0  0  0  0
   -8.0225   -3.5556    0.2073 C   0  0  2  0  0  0  0  0  0  0  0  0
   -8.7051   -4.5928   -0.7245 C   0  0  0  0  0  0  0  0  0  0  0  0
   -6.9132   -4.2556    1.0050 C   0  0  0  0  0  0  0  0  0  0  0  0
   -7.2481   -5.3109    1.8676 C   0  0  0  0  0  0  0  0  0  0  0  0
   -6.2981   -6.0035    2.6175 C   0  0  0  0  0  0  0  0  0  0  0  0
   -4.9567   -5.6327    2.5056 C   0  0  0  0  0  0  0  0  0  0  0  0
   -4.5877   -4.5915    1.6599 C   0  0  0  0  0  0  0  0  0  0  0  0
   -5.5507   -3.8893    0.8997 C   0  0  0  0  0  0  0  0  0  0  0  0
   -5.1468   -2.8430    0.0552 N   0  0  0  0  0  0  0  0  0  0  0  0
   -3.7501   -2.5167   -0.0383 C   0  0  0  0  0  0  0  0  0  0  0  0
   -3.1820   -1.5698    0.8237 C   0  0  0  0  0  0  0  0  0  0  0  0
   -1.8242   -1.2613    0.7367 C   0  0  0  0  0  0  0  0  0  0  0  0
   -0.9957   -1.8863   -0.2152 C   0  0  0  0  0  0  0  0  0  0  0  0
    0.4722   -1.6419   -0.2900 C   0  0  0  0  0  0  0  0  0  0  0  0
    1.2041   -2.7565   -0.5295 N   0  0  0  0  0  0  0  0  0  0  0  0
    2.5513   -2.6606   -0.4690 C   0  0  0  0  0  0  0  0  0  0  0  0
    3.3700   -3.7899   -0.7279 C   0  0  0  0  0  0  0  0  0  0  0  0
    4.7624   -3.7257   -0.5963 C   0  0  0  0  0  0  0  0  0  0  0  0
    5.3457   -2.5204   -0.2059 C   0  0  0  0  0  0  0  0  0  0  0  0
    6.8039   -2.4469   -0.0565 N   0  0  0  0  0  0  0  0  0  0  0  0
    7.5725   -2.0794   -1.1483 C   0  0  0  0  0  0  0  0  0  0  0  0
    6.9253   -1.7703   -2.3779 C   0  0  0  0  0  0  0  0  0  0  0  0
    7.6654   -1.4019   -3.4845 C   0  0  0  0  0  0  0  0  0  0  0  0
    9.0654   -1.3329   -3.4005 C   0  0  0  0  0  0  0  0  0  0  0  0
    9.7050   -1.6343   -2.1973 C   0  0  0  0  0  0  0  0  0  0  0  0
    8.9936   -2.0079   -1.0531 C   0  0  0  0  0  0  0  0  0  0  0  0
    9.7389   -2.3298    0.2361 C   0  0  1  0  0  0  0  0  0  0  0  0
   10.6943   -3.5311   -0.0218 C   0  0  0  0  0  0  0  0  0  0  0  0
   10.5688   -1.0850    0.6636 C   0  0  0  0  0  0  0  0  0  0  0  0
    8.7802   -2.6958    1.3625 C   0  0  0  0  0  0  0  0  0  0  0  0
    9.2784   -3.0088    2.6312 C   0  0  0  0  0  0  0  0  0  0  0  0
    8.4384   -3.3513    3.6917 C   0  0  0  0  0  0  0  0  0  0  0  0
    7.0481   -3.3884    3.4988 C   0  0  0  0  0  0  0  0  0  0  0  0
    6.5154   -3.0890    2.2599 C   0  0  0  0  0  0  0  0  0  0  0  0
    7.3675   -2.7404    1.1743 C   0  0  0  0  0  0  0  0  0  0  0  0
    4.5862   -1.3700    0.0424 C   0  0  0  0  0  0  0  0  0  0  0  0
    3.1775   -1.4113   -0.1071 C   0  0  0  0  0  0  0  0  0  0  0  0
    2.4410   -0.2892    0.0546 N   0  0  0  0  0  0  0  0  0  0  0  0
    1.0960   -0.3862   -0.0854 C   0  0  0  0  0  0  0  0  0  0  0  0
    0.3895    0.9252   -0.0614 C   0  0  0  0  0  0  0  0  0  0  0  0
   -0.6886    1.2261   -0.9161 C   0  0  0  0  0  0  0  0  0  0  0  0
   -1.2749    2.4920   -0.9198 C   0  0  0  0  0  0  0  0  0  0  0  0
   -0.7950    3.4982   -0.0717 C   0  0  0  0  0  0  0  0  0  0  0  0
   -1.3867    4.8082   -0.0876 N   0  0  0  0  0  0  0  0  0  0  0  0
   -2.4540    5.0926    0.7794 C   0  0  0  0  0  0  0  0  0  0  0  0
   -2.9386    4.0905    1.6501 C   0  0  0  0  0  0  0  0  0  0  0  0
   -3.9938    4.3410    2.5214 C   0  0  0  0  0  0  0  0  0  0  0  0
   -4.5961    5.6003    2.5489 C   0  0  0  0  0  0  0  0  0  0  0  0
   -4.1188    6.5889    1.6891 C   0  0  0  0  0  0  0  0  0  0  0  0
   -3.0572    6.3720    0.7970 C   0  0  0  0  0  0  0  0  0  0  0  0
   -2.5956    7.5175   -0.1151 C   0  0  1  0  0  0  0  0  0  0  0  0
   -3.7856    7.9695   -1.0027 C   0  0  0  0  0  0  0  0  0  0  0  0
   -2.1295    8.7083    0.7649 C   0  0  0  0  0  0  0  0  0  0  0  0
   -1.4343    7.0776   -1.0176 C   0  0  0  0  0  0  0  0  0  0  0  0
   -0.8851    7.9954   -1.9264 C   0  0  0  0  0  0  0  0  0  0  0  0
    0.1722    7.6748   -2.7772 C   0  0  0  0  0  0  0  0  0  0  0  0
    0.7078    6.3866   -2.7230 C   0  0  0  0  0  0  0  0  0  0  0  0
    0.1887    5.4505   -1.8343 C   0  0  0  0  0  0  0  0  0  0  0  0
   -0.8835    5.7751   -0.9721 C   0  0  0  0  0  0  0  0  0  0  0  0
    0.2857    3.2181    0.7740 C   0  0  0  0  0  0  0  0  0  0  0  0
    0.8743    1.9542    0.7700 C   0  0  0  0  0  0  0  0  0  0  0  0
   -1.5761   -2.8551   -1.0572 C   0  0  0  0  0  0  0  0  0  0  0  0
   -2.9348   -3.1579   -0.9797 C   0  0  0  0  0  0  0  0  0  0  0  0
   -6.0767   -2.1079   -0.6972 C   0  0  0  0  0  0  0  0  0  0  0  0
   -5.6345   -1.0458   -1.5179 C   0  0  0  0  0  0  0  0  0  0  0  0
   -6.5308   -0.2981   -2.2749 C   0  0  0  0  0  0  0  0  0  0  0  0
   -7.8955   -0.5900   -2.2352 C   0  0  0  0  0  0  0  0  0  0  0  0
   -8.3320   -1.6384   -1.4260 C   0  0  0  0  0  0  0  0  0  0  0  0
   -7.4573   -2.4129   -0.6482 C   0  0  0  0  0  0  0  0  0  0  0  0
   -9.8984   -2.4887    0.6560 H   0  0  0  0  0  0  0  0  0  0  0  0
   -8.6138   -2.2394    1.8638 H   0  0  0  0  0  0  0  0  0  0  0  0
   -9.5135   -3.7758    1.8155 H   0  0  0  0  0  0  0  0  0  0  0  0
   -9.5182   -4.1307   -1.3053 H   0  0  0  0  0  0  0  0  0  0  0  0
   -9.1374   -5.4237   -0.1459 H   0  0  0  0  0  0  0  0  0  0  0  0
   -7.9782   -5.0159   -1.4345 H   0  0  0  0  0  0  0  0  0  0  0  0
   -8.2964   -5.6050    1.9555 H   0  0  0  0  0  0  0  0  0  0  0  0
   -6.6029   -6.8195    3.2767 H   0  0  0  0  0  0  0  0  0  0  0  0
   -4.1857   -6.1546    3.0786 H   0  0  0  0  0  0  0  0  0  0  0  0
   -3.5380   -4.3129    1.5823 H   0  0  0  0  0  0  0  0  0  0  0  0
   -3.8119   -1.0848    1.5729 H   0  0  0  0  0  0  0  0  0  0  0  0
   -1.3957   -0.5378    1.4322 H   0  0  0  0  0  0  0  0  0  0  0  0
    2.8759   -4.7197   -1.0150 H   0  0  0  0  0  0  0  0  0  0  0  0
    5.3795   -4.6059   -0.7888 H   0  0  0  0  0  0  0  0  0  0  0  0
    5.8413   -1.8236   -2.4293 H   0  0  0  0  0  0  0  0  0  0  0  0
    7.1559   -1.1648   -4.4202 H   0  0  0  0  0  0  0  0  0  0  0  0
    9.6564   -1.0436   -4.2719 H   0  0  0  0  0  0  0  0  0  0  0  0
   10.7935   -1.5751   -2.1540 H   0  0  0  0  0  0  0  0  0  0  0  0
   11.4153   -3.2925   -0.8167 H   0  0  0  0  0  0  0  0  0  0  0  0
   11.2643   -3.7786    0.8852 H   0  0  0  0  0  0  0  0  0  0  0  0
   10.1298   -4.4246   -0.3272 H   0  0  0  0  0  0  0  0  0  0  0  0
   11.1343   -1.2893    1.5838 H   0  0  0  0  0  0  0  0  0  0  0  0
   11.2915   -0.8096   -0.1175 H   0  0  0  0  0  0  0  0  0  0  0  0
    9.9148   -0.2197    0.8470 H   0  0  0  0  0  0  0  0  0  0  0  0
   10.3554   -2.9855    2.8039 H   0  0  0  0  0  0  0  0  0  0  0  0
    8.8660   -3.5880    4.6682 H   0  0  0  0  0  0  0  0  0  0  0  0
    6.3829   -3.6518    4.3230 H   0  0  0  0  0  0  0  0  0  0  0  0
    5.4410   -3.1105    2.0992 H   0  0  0  0  0  0  0  0  0  0  0  0
    5.0459   -0.4227    0.3284 H   0  0  0  0  0  0  0  0  0  0  0  0
   -1.0601    0.4649   -1.6038 H   0  0  0  0  0  0  0  0  0  0  0  0
   -2.1038    2.7142   -1.5957 H   0  0  0  0  0  0  0  0  0  0  0  0
   -2.4789    3.1036    1.6366 H   0  0  0  0  0  0  0  0  0  0  0  0
   -4.3450    3.5423    3.1801 H   0  0  0  0  0  0  0  0  0  0  0  0
   -5.4261    5.8117    3.2268 H   0  0  0  0  0  0  0  0  0  0  0  0
   -4.5923    7.5730    1.7114 H   0  0  0  0  0  0  0  0  0  0  0  0
   -3.4961    8.7989   -1.6660 H   0  0  0  0  0  0  0  0  0  0  0  0
   -4.1389    7.1385   -1.6321 H   0  0  0  0  0  0  0  0  0  0  0  0
   -4.6320    8.3148   -0.3895 H   0  0  0  0  0  0  0  0  0  0  0  0
   -1.8028    9.5581    0.1460 H   0  0  0  0  0  0  0  0  0  0  0  0
   -2.9424    9.0641    1.4164 H   0  0  0  0  0  0  0  0  0  0  0  0
   -1.2859    8.4113    1.4064 H   0  0  0  0  0  0  0  0  0  0  0  0
   -1.3017    9.0043   -1.9703 H   0  0  0  0  0  0  0  0  0  0  0  0
    0.5690    8.4204   -3.4701 H   0  0  0  0  0  0  0  0  0  0  0  0
    1.5369    6.1011   -3.3761 H   0  0  0  0  0  0  0  0  0  0  0  0
    0.6154    4.4493   -1.8031 H   0  0  0  0  0  0  0  0  0  0  0  0
    0.6665    4.0050    1.4295 H   0  0  0  0  0  0  0  0  0  0  0  0
    1.7355    1.7417    1.4047 H   0  0  0  0  0  0  0  0  0  0  0  0
   -0.9313   -3.3744   -1.7674 H   0  0  0  0  0  0  0  0  0  0  0  0
   -3.3755   -3.9041   -1.6450 H   0  0  0  0  0  0  0  0  0  0  0  0
   -4.5729   -0.8070   -1.5564 H   0  0  0  0  0  0  0  0  0  0  0  0
   -6.1548    0.5180   -2.8975 H   0  0  0  0  0  0  0  0  0  0  0  0
   -8.6113   -0.0118   -2.8238 H   0  0  0  0  0  0  0  0  0  0  0  0
   -9.4001   -1.8655   -1.3987 H   0  0  0  0  0  0  0  0  0  0  0  0
  2  1  1  1
  1 71  1  0
  1 72  1  0
  1 73  1  0
  2  3  1  0
  2  4  1  0
  2 70  1  0
  3 74  1  0
  3 75  1  0
  3 76  1  0
  4  5  1  0
  4  9  2  0
  5  6  2  0
  5 77  1  0
  6  7  1  0
  6 78  1  0
  7  8  2  0
  7 79  1  0
  8  9  1  0
  8 80  1  0
  9 10  1  0
 10 11  1  0
 10 65  1  0
 11 12  2  0
 11 64  1  0
 12 13  1  0
 12 81  1  0
 13 14  2  0
 13 82  1  0
 14 15  1  0
 14 63  1  0
 15 16  2  0
 15 40  1  0
 16 17  1  0
 17 18  2  0
 17 38  1  0
 18 19  1  0
 18 83  1  0
 19 20  2  0
 19 84  1  0
 20 21  1  0
 20 37  1  0
 21 22  1  0
 21 36  1  0
 22 23  2  0
 22 27  1  0
 23 24  1  0
 23 85  1  0
 24 25  2  0
 24 86  1  0
 25 26  1  0
 25 87  1  0
 26 27  2  0
 26 88  1  0
 27 28  1  0
 28 29  1  6
 28 30  1  0
 28 31  1  0
 29 89  1  0
 29 90  1  0
 29 91  1  0
 30 92  1  0
 30 93  1  0
 30 94  1  0
 31 32  2  0
 31 36  1  0
 32 33  1  0
 32 95  1  0
 33 34  2  0
 33 96  1  0
 34 35  1  0
 34 97  1  0
 35 36  2  0
 35 98  1  0
 37 38  2  0
 37 99  1  0
 38 39  1  0
 39 40  2  0
 40 41  1  0
 41 42  2  0
 41 62  1  0
 42 43  1  0
 42100  1  0
 43 44  2  0
 43101  1  0
 44 45  1  0
 44 61  1  0
 45 46  1  0
 45 60  1  0
 46 47  2  0
 46 51  1  0
 47 48  1  0
 47102  1  0
 48 49  2  0
 48103  1  0
 49 50  1  0
 49104  1  0
 50 51  2  0
 50105  1  0
 51 52  1  0
 52 53  1  6
 52 54  1  0
 52 55  1  0
 53106  1  0
 53107  1  0
 53108  1  0
 54109  1  0
 54110  1  0
 54111  1  0
 55 56  2  0
 55 60  1  0
 56 57  1  0
 56112  1  0
 57 58  2  0
 57113  1  0
 58 59  1  0
 58114  1  0
 59 60  2  0
 59115  1  0
 61 62  2  0
 61116  1  0
 62117  1  0
 63 64  2  0
 63118  1  0
 64119  1  0
 65 66  1  0
 65 70  2  0
 66 67  2  0
 66120  1  0
 67 68  1  0
 67121  1  0
 68 69  2  0
 68122  1  0
 69 70  1  0
 69123  1  0
M  END

