
     RDKit          3D

 49 53  0  0  0  0  0  0  0  0999 V2000
   -1.3422   -0.6698    0.7064 C   0  0  0  0  0  0  0  0  0  0  0  0
   -0.8942    0.5841    0.2593 C   0  0  0  0  0  0  0  0  0  0  0  0
    0.4367    0.7704   -0.0929 C   0  0  0  0  0  0  0  0  0  0  0  0
    1.3801   -0.2983   -0.0194 C   0  0  0  0  0  0  0  0  0  0  0  0
    2.7765   -0.1101   -0.3884 C   0  0  0  0  0  0  0  0  0  0  0  0
    3.3751    1.1865   -0.4401 C   0  0  0  0  0  0  0  0  0  0  0  0
    4.7005    1.3656   -0.7810 C   0  0  0  0  0  0  0  0  0  0  0  0
    5.5494    0.2593   -1.1156 C   0  0  0  0  0  0  0  0  0  0  0  0
    6.9486    0.4559   -1.4790 C   0  0  0  0  0  0  0  0  0  0  0  0
    7.5140    1.7597   -1.6846 C   0  0  0  0  0  0  0  0  0  0  0  0
    8.8634    1.8564   -2.0344 C   0  0  0  0  0  0  0  0  0  0  0  0
    9.4650    3.1941   -2.2717 C   0  0  0  0  0  0  0  0  0  0  0  0
   10.8189    3.3151   -2.6198 C   0  0  0  0  0  0  0  0  0  0  0  0
   11.3494    4.5826   -2.8343 C   0  0  0  0  0  0  0  0  0  0  0  0
   10.5196    5.6851   -2.6951 C   0  0  0  0  0  0  0  0  0  0  0  0
    9.1851    5.4584   -2.3435 C   0  0  0  0  0  0  0  0  0  0  0  0
    8.6731    4.2522   -2.1372 N   0  0  0  0  0  0  0  0  0  0  0  0
    9.6819    0.8068   -2.1804 N   0  0  0  0  0  0  0  0  0  0  0  0
    9.1819   -0.4444   -1.9949 C   0  0  0  0  0  0  0  0  0  0  0  0
   10.0584   -1.6055   -2.1488 C   0  0  0  0  0  0  0  0  0  0  0  0
   11.4327   -1.4519   -2.4841 C   0  0  0  0  0  0  0  0  0  0  0  0
   12.2227   -2.5785   -2.6209 C   0  0  0  0  0  0  0  0  0  0  0  0
   11.6481   -3.8507   -2.4272 C   0  0  0  0  0  0  0  0  0  0  0  0
   10.2835   -3.9053   -2.1007 C   0  0  0  0  0  0  0  0  0  0  0  0
    9.5117   -2.8440   -1.9647 N   0  0  0  0  0  0  0  0  0  0  0  0
    7.8124   -0.6392   -1.6467 C   0  0  0  0  0  0  0  0  0  0  0  0
    4.9433   -1.0383   -1.0743 C   0  0  0  0  0  0  0  0  0  0  0  0
    3.6239   -1.2152   -0.7226 C   0  0  0  0  0  0  0  0  0  0  0  0
    0.8957   -1.5618    0.4341 C   0  0  0  0  0  0  0  0  0  0  0  0
   -0.4354   -1.7386    0.7915 C   0  0  0  0  0  0  0  0  0  0  0  0
   -2.3887   -0.8123    0.9861 H   0  0  0  0  0  0  0  0  0  0  0  0
   -1.5961    1.4177    0.1810 H   0  0  0  0  0  0  0  0  0  0  0  0
    0.7543    1.7464   -0.4605 H   0  0  0  0  0  0  0  0  0  0  0  0
    2.7856    2.0634   -0.1693 H   0  0  0  0  0  0  0  0  0  0  0  0
    5.1144    2.3719   -0.7742 H   0  0  0  0  0  0  0  0  0  0  0  0
    6.9441    2.6805   -1.6086 H   0  0  0  0  0  0  0  0  0  0  0  0
   11.4164    2.4090   -2.7136 H   0  0  0  0  0  0  0  0  0  0  0  0
   12.4007    4.7054   -3.1074 H   0  0  0  0  0  0  0  0  0  0  0  0
   10.8874    6.7018   -2.8517 H   0  0  0  0  0  0  0  0  0  0  0  0
    8.4984    6.3053   -2.2242 H   0  0  0  0  0  0  0  0  0  0  0  0
   11.8313   -0.4478   -2.6253 H   0  0  0  0  0  0  0  0  0  0  0  0
   13.2816   -2.4805   -2.8774 H   0  0  0  0  0  0  0  0  0  0  0  0
   12.2334   -4.7671   -2.5262 H   0  0  0  0  0  0  0  0  0  0  0  0
    9.8013   -4.8788   -1.9423 H   0  0  0  0  0  0  0  0  0  0  0  0
    7.4987   -1.6717   -1.5003 H   0  0  0  0  0  0  0  0  0  0  0  0
    5.5318   -1.9132   -1.3497 H   0  0  0  0  0  0  0  0  0  0  0  0
    3.2131   -2.2254   -0.7368 H   0  0  0  0  0  0  0  0  0  0  0  0
    1.5860   -2.3999    0.5342 H   0  0  0  0  0  0  0  0  0  0  0  0
   -0.7745   -2.7143    1.1479 H   0  0  0  0  0  0  0  0  0  0  0  0
  1  2  2  0
  1 30  1  0
  1 31  1  0
  2  3  1  0
  2 32  1  0
  3  4  2  0
  3 33  1  0
  4  5  1  0
  4 29  1  0
  5  6  2  0
  5 28  1  0
  6  7  1  0
  6 34  1  0
  7  8  2  0
  7 35  1  0
  8  9  1  0
  8 27  1  0
  9 10  2  0
  9 26  1  0
 10 11  1  0
 10 36  1  0
 11 12  1  0
 11 18  2  0
 12 13  2  0
 12 17  1  0
 13 14  1  0
 13 37  1  0
 14 15  2  0
 14 38  1  0
 15 16  1  0
 15 39  1  0
 16 17  2  0
 16 40  1  0
 18 19  1  0
 19 20  1  0
 19 26  2  0
 20 21  2  0
 20 25  1  0
 21 22  1  0
 21 41  1  0
 22 23  2  0
 22 42  1  0
 23 24  1  0
 23 43  1  0
 24 25  2  0
 24 44  1  0
 26 45  1  0
 27 28  2  0
 27 46  1  0
 28 47  1  0
 29 30  2  0
 29 48  1  0
 30 49  1  0
M  END

