
     RDKit          3D

 70 78  0  0  0  0  0  0  0  0999 V2000
    3.3347    0.5744    1.6475 C   0  0  0  0  0  0  0  0  0  0  0  0
    3.2971   -0.8217    1.6221 C   0  0  0  0  0  0  0  0  0  0  0  0
    2.1975   -1.4875    1.0846 C   0  0  0  0  0  0  0  0  0  0  0  0
    1.1021   -0.7722    0.5573 C   0  0  0  0  0  0  0  0  0  0  0  0
    1.1340    0.6394    0.5816 C   0  0  0  0  0  0  0  0  0  0  0  0
    2.2520    1.2830    1.1263 C   0  0  0  0  0  0  0  0  0  0  0  0
   -0.0106    1.4647    0.0408 C   0  0  0  0  0  0  0  0  0  0  0  0
   -1.1380    0.6463   -0.5449 C   0  0  0  0  0  0  0  0  0  0  0  0
   -2.2441    1.2966   -1.1058 C   0  0  0  0  0  0  0  0  0  0  0  0
   -3.3177    0.5945   -1.6538 C   0  0  0  0  0  0  0  0  0  0  0  0
   -3.2832   -0.8018   -1.6394 C   0  0  0  0  0  0  0  0  0  0  0  0
   -2.1941   -1.4743   -1.0890 C   0  0  0  0  0  0  0  0  0  0  0  0
   -1.1071   -0.7655   -0.5360 C   0  0  0  0  0  0  0  0  0  0  0  0
   -0.0069   -1.4578    0.0154 N   0  0  0  0  0  0  0  0  0  0  0  0
   -0.0111   -2.8918    0.0147 C   0  0  0  0  0  0  0  0  0  0  0  0
    0.5322   -3.5886   -1.0864 C   0  0  0  0  0  0  0  0  0  0  0  0
    1.0930   -2.9054   -2.2136 C   0  0  0  0  0  0  0  0  0  0  0  0
    1.6164   -3.6029   -3.2728 C   0  0  0  0  0  0  0  0  0  0  0  0
    1.6112   -5.0281   -3.2729 C   0  0  0  0  0  0  0  0  0  0  0  0
    1.0828   -5.7219   -2.2138 C   0  0  0  0  0  0  0  0  0  0  0  0
    0.5270   -5.0349   -1.0865 C   0  0  0  0  0  0  0  0  0  0  0  0
   -0.0211   -5.7280    0.0145 C   0  0  0  0  0  0  0  0  0  0  0  0
   -0.0270   -7.1620    0.0139 N   0  0  0  0  0  0  0  0  0  0  0  0
    1.0746   -7.8560    0.5605 C   0  0  0  0  0  0  0  0  0  0  0  0
    2.1676   -7.1489    1.1036 C   0  0  0  0  0  0  0  0  0  0  0  0
    3.2588   -7.8231    1.6478 C   0  0  0  0  0  0  0  0  0  0  0  0
    3.2898   -9.2194    1.6650 C   0  0  0  0  0  0  0  0  0  0  0  0
    2.2098   -9.9198    1.1275 C   0  0  0  0  0  0  0  0  0  0  0  0
    1.1009   -9.2678    0.5743 C   0  0  0  0  0  0  0  0  0  0  0  0
   -0.0368  -10.0847    0.0066 C   0  0  0  0  0  0  0  0  0  0  0  0
   -1.1716   -9.2574   -0.5515 C   0  0  0  0  0  0  0  0  0  0  0  0
   -2.2873   -9.8992   -1.1030 C   0  0  0  0  0  0  0  0  0  0  0  0
   -3.3639   -9.1888   -1.6342 C   0  0  0  0  0  0  0  0  0  0  0  0
   -3.3225   -7.7928   -1.6121 C   0  0  0  0  0  0  0  0  0  0  0  0
   -2.2246   -7.1288   -1.0691 C   0  0  0  0  0  0  0  0  0  0  0  0
   -1.1350   -7.8459   -0.5322 C   0  0  0  0  0  0  0  0  0  0  0  0
   -0.5644   -5.0312    1.1156 C   0  0  0  0  0  0  0  0  0  0  0  0
   -1.1257   -5.7144    2.2425 C   0  0  0  0  0  0  0  0  0  0  0  0
   -1.6495   -5.0169    3.3015 C   0  0  0  0  0  0  0  0  0  0  0  0
   -1.6445   -3.5917    3.3016 C   0  0  0  0  0  0  0  0  0  0  0  0
   -1.1158   -2.8979    2.2426 C   0  0  0  0  0  0  0  0  0  0  0  0
   -0.5594   -3.5849    1.1157 C   0  0  0  0  0  0  0  0  0  0  0  0
    4.1934    1.1034    2.0667 H   0  0  0  0  0  0  0  0  0  0  0  0
    4.1299   -1.4049    2.0231 H   0  0  0  0  0  0  0  0  0  0  0  0
    2.1863   -2.5768    1.0725 H   0  0  0  0  0  0  0  0  0  0  0  0
    2.2645    2.3774    1.1389 H   0  0  0  0  0  0  0  0  0  0  0  0
    0.3716    2.1649   -0.7253 H   0  0  0  0  0  0  0  0  0  0  0  0
   -0.4079    2.1118    0.8456 H   0  0  0  0  0  0  0  0  0  0  0  0
   -2.2554    2.3911   -1.1074 H   0  0  0  0  0  0  0  0  0  0  0  0
   -4.1677    1.1287   -2.0842 H   0  0  0  0  0  0  0  0  0  0  0  0
   -4.1096   -1.3799   -2.0605 H   0  0  0  0  0  0  0  0  0  0  0  0
   -2.1842   -2.5636   -1.0875 H   0  0  0  0  0  0  0  0  0  0  0  0
    1.0962   -1.8151   -2.2145 H   0  0  0  0  0  0  0  0  0  0  0  0
    2.0404   -3.0646   -4.1240 H   0  0  0  0  0  0  0  0  0  0  0  0
    2.0313   -5.5692   -4.1243 H   0  0  0  0  0  0  0  0  0  0  0  0
    1.0781   -6.8122   -2.2147 H   0  0  0  0  0  0  0  0  0  0  0  0
    2.1611   -6.0596    1.0991 H   0  0  0  0  0  0  0  0  0  0  0  0
    4.0900   -7.2462    2.0611 H   0  0  0  0  0  0  0  0  0  0  0  0
    4.1416   -9.7549    2.0901 H   0  0  0  0  0  0  0  0  0  0  0  0
    2.2177  -11.0143    1.1324 H   0  0  0  0  0  0  0  0  0  0  0  0
   -0.4274  -10.7629    0.7885 H   0  0  0  0  0  0  0  0  0  0  0  0
    0.3517  -10.7547   -0.7835 H   0  0  0  0  0  0  0  0  0  0  0  0
   -2.3033  -10.9936   -1.1121 H   0  0  0  0  0  0  0  0  0  0  0  0
   -4.2212   -9.7164   -2.0582 H   0  0  0  0  0  0  0  0  0  0  0  0
   -4.1508   -7.2083   -2.0206 H   0  0  0  0  0  0  0  0  0  0  0  0
   -2.2099   -6.0395   -1.0603 H   0  0  0  0  0  0  0  0  0  0  0  0
   -1.1289   -6.8047    2.2433 H   0  0  0  0  0  0  0  0  0  0  0  0
   -2.0738   -5.5552    4.1527 H   0  0  0  0  0  0  0  0  0  0  0  0
   -2.0650   -3.0506    4.1528 H   0  0  0  0  0  0  0  0  0  0  0  0
   -1.1113   -1.8076    2.2433 H   0  0  0  0  0  0  0  0  0  0  0  0
  1  2  2  0
  1  6  1  0
  1 43  1  0
  2  3  1  0
  2 44  1  0
  3  4  2  0
  3 45  1  0
  4  5  1  0
  4 14  1  0
  5  6  2  0
  5  7  1  0
  6 46  1  0
  7  8  1  0
  7 47  1  0
  7 48  1  0
  8  9  2  0
  8 13  1  0
  9 10  1  0
  9 49  1  0
 10 11  2  0
 10 50  1  0
 11 12  1  0
 11 51  1  0
 12 13  2  0
 12 52  1  0
 13 14  1  0
 14 15  1  0
 15 16  1  0
 15 42  2  0
 16 17  2  0
 16 21  1  0
 17 18  1  0
 17 53  1  0
 18 19  2  0
 18 54  1  0
 19 20  1  0
 19 55  1  0
 20 21  2  0
 20 56  1  0
 21 22  1  0
 22 23  1  0
 22 37  2  0
 23 24  1  0
 23 36  1  0
 24 25  2  0
 24 29  1  0
 25 26  1  0
 25 57  1  0
 26 27  2  0
 26 58  1  0
 27 28  1  0
 27 59  1  0
 28 29  2  0
 28 60  1  0
 29 30  1  0
 30 31  1  0
 30 61  1  0
 30 62  1  0
 31 32  2  0
 31 36  1  0
 32 33  1  0
 32 63  1  0
 33 34  2  0
 33 64  1  0
 34 35  1  0
 34 65  1  0
 35 36  2  0
 35 66  1  0
 37 38  1  0
 37 42  1  0
 38 39  2  0
 38 67  1  0
 39 40  1  0
 39 68  1  0
 40 41  2  0
 40 69  1  0
 41 42  1  0
 41 70  1  0
M  END

