
     RDKit          3D

 72 81  0  0  0  0  0  0  0  0999 V2000
   -1.3337    5.6924    6.4549 N   0  0  0  0  0  0  0  0  0  0  0  0
   -0.8065    4.9997    5.6824 C   0  0  0  0  0  0  0  0  0  0  0  0
   -0.1714    4.1424    4.7262 C   0  0  0  0  0  0  0  0  0  0  0  0
   -0.9769    3.4327    3.8850 N   0  0  0  0  0  0  0  0  0  0  0  0
   -0.3430    2.6357    2.9980 C   0  0  0  0  0  0  0  0  0  0  0  0
   -1.1563    1.8511    2.0681 C   0  0  0  0  0  0  0  0  0  0  0  0
   -2.5653    1.9515    2.1220 C   0  0  0  0  0  0  0  0  0  0  0  0
   -3.3693    1.2284    1.2583 C   0  0  0  0  0  0  0  0  0  0  0  0
   -2.7785    0.3719    0.3030 C   0  0  0  0  0  0  0  0  0  0  0  0
   -3.5755   -0.3973   -0.6167 N   0  0  0  0  0  0  0  0  0  0  0  0
   -4.1122   -1.6316   -0.1748 C   0  0  0  0  0  0  0  0  0  0  0  0
   -4.1640   -1.9653    1.1916 C   0  0  0  0  0  0  0  0  0  0  0  0
   -4.6966   -3.1852    1.6172 C   0  0  0  0  0  0  0  0  0  0  0  0
   -5.2150   -4.0950    0.6954 C   0  0  0  0  0  0  0  0  0  0  0  0
   -5.1766   -3.7769   -0.6647 C   0  0  0  0  0  0  0  0  0  0  0  0
   -4.6109   -2.5751   -1.1009 C   0  0  0  0  0  0  0  0  0  0  0  0
   -4.4041   -2.3068   -2.8470 S   0  0  0  0  0  0  0  0  0  0  0  0
   -4.5250   -0.5325   -2.8818 C   0  0  0  0  0  0  0  0  0  0  0  0
   -5.0136    0.0891   -4.0349 C   0  0  0  0  0  0  0  0  0  0  0  0
   -4.9807    1.4801   -4.1640 C   0  0  0  0  0  0  0  0  0  0  0  0
   -4.4698    2.2445   -3.1148 C   0  0  0  0  0  0  0  0  0  0  0  0
   -4.0148    1.6325   -1.9438 C   0  0  0  0  0  0  0  0  0  0  0  0
   -4.0347    0.2325   -1.7997 C   0  0  0  0  0  0  0  0  0  0  0  0
   -1.3981    0.2625    0.2389 C   0  0  0  0  0  0  0  0  0  0  0  0
   -0.5517    0.9900    1.1089 C   0  0  0  0  0  0  0  0  0  0  0  0
    0.9024    0.8910    1.0571 C   0  0  0  0  0  0  0  0  0  0  0  0
    1.5774    0.0553    0.1371 C   0  0  0  0  0  0  0  0  0  0  0  0
    2.9599   -0.0073    0.1180 C   0  0  0  0  0  0  0  0  0  0  0  0
    3.6251   -0.8871   -0.8475 N   0  0  0  0  0  0  0  0  0  0  0  0
    3.8975   -2.1918   -0.4518 C   0  0  0  0  0  0  0  0  0  0  0  0
    3.5445   -2.6278    0.8524 C   0  0  0  0  0  0  0  0  0  0  0  0
    3.8039   -3.9206    1.2685 C   0  0  0  0  0  0  0  0  0  0  0  0
    4.4256   -4.8517    0.4134 C   0  0  0  0  0  0  0  0  0  0  0  0
    4.7834   -4.4598   -0.8639 C   0  0  0  0  0  0  0  0  0  0  0  0
    4.5290   -3.1455   -1.3035 C   0  0  0  0  0  0  0  0  0  0  0  0
    5.0285   -2.7869   -2.9298 S   0  0  0  0  0  0  0  0  0  0  0  0
    4.5927   -1.1135   -3.1139 C   0  0  0  0  0  0  0  0  0  0  0  0
    4.9068   -0.5350   -4.3597 C   0  0  0  0  0  0  0  0  0  0  0  0
    4.6022    0.7903   -4.6125 C   0  0  0  0  0  0  0  0  0  0  0  0
    3.9740    1.5540   -3.6092 C   0  0  0  0  0  0  0  0  0  0  0  0
    3.6569    1.0017   -2.3819 C   0  0  0  0  0  0  0  0  0  0  0  0
    3.9549   -0.3549   -2.0884 C   0  0  0  0  0  0  0  0  0  0  0  0
    3.7416    0.7548    1.0093 C   0  0  0  0  0  0  0  0  0  0  0  0
    3.1025    1.5757    1.9182 C   0  0  0  0  0  0  0  0  0  0  0  0
    1.6862    1.6651    1.9677 C   0  0  0  0  0  0  0  0  0  0  0  0
    1.0577    2.5361    2.9372 C   0  0  0  0  0  0  0  0  0  0  0  0
    1.8690    3.2534    3.7863 N   0  0  0  0  0  0  0  0  0  0  0  0
    1.2354    4.0399    4.6612 C   0  0  0  0  0  0  0  0  0  0  0  0
    2.0694    4.8026    5.5634 C   0  0  0  0  0  0  0  0  0  0  0  0
    2.7575    5.4054    6.2778 N   0  0  0  0  0  0  0  0  0  0  0  0
   -2.9894    2.6218    2.8704 H   0  0  0  0  0  0  0  0  0  0  0  0
   -4.4572    1.3139    1.3069 H   0  0  0  0  0  0  0  0  0  0  0  0
   -3.7779   -1.2655    1.9316 H   0  0  0  0  0  0  0  0  0  0  0  0
   -4.7134   -3.4122    2.6861 H   0  0  0  0  0  0  0  0  0  0  0  0
   -5.6449   -5.0433    1.0257 H   0  0  0  0  0  0  0  0  0  0  0  0
   -5.5724   -4.4731   -1.4085 H   0  0  0  0  0  0  0  0  0  0  0  0
   -5.4055   -0.5335   -4.8432 H   0  0  0  0  0  0  0  0  0  0  0  0
   -5.3503    1.9559   -5.0752 H   0  0  0  0  0  0  0  0  0  0  0  0
   -4.4322    3.3339   -3.1927 H   0  0  0  0  0  0  0  0  0  0  0  0
   -3.6340    2.2517   -1.1327 H   0  0  0  0  0  0  0  0  0  0  0  0
   -0.9867   -0.4098   -0.5141 H   0  0  0  0  0  0  0  0  0  0  0  0
    1.0112   -0.5508   -0.5706 H   0  0  0  0  0  0  0  0  0  0  0  0
    3.0640   -1.9274    1.5298 H   0  0  0  0  0  0  0  0  0  0  0  0
    3.5180   -4.2177    2.2792 H   0  0  0  0  0  0  0  0  0  0  0  0
    4.6241   -5.8699    0.7518 H   0  0  0  0  0  0  0  0  0  0  0  0
    5.2670   -5.1630   -1.5460 H   0  0  0  0  0  0  0  0  0  0  0  0
    5.3939   -1.1483   -5.1215 H   0  0  0  0  0  0  0  0  0  0  0  0
    4.8466    1.2357   -5.5782 H   0  0  0  0  0  0  0  0  0  0  0  0
    3.7293    2.6012   -3.7963 H   0  0  0  0  0  0  0  0  0  0  0  0
    3.1723    1.6100   -1.6234 H   0  0  0  0  0  0  0  0  0  0  0  0
    4.8319    0.6940    0.9810 H   0  0  0  0  0  0  0  0  0  0  0  0
    3.6654    2.1820    2.6283 H   0  0  0  0  0  0  0  0  0  0  0  0
  1  2  3  0
  2  3  1  0
  3  4  2  0
  3 48  1  0
  4  5  1  0
  5  6  2  0
  5 46  1  0
  6  7  1  0
  6 25  1  0
  7  8  2  0
  7 51  1  0
  8  9  1  0
  8 52  1  0
  9 10  1  0
  9 24  2  0
 10 11  1  0
 10 23  1  0
 11 12  2  0
 11 16  1  0
 12 13  1  0
 12 53  1  0
 13 14  2  0
 13 54  1  0
 14 15  1  0
 14 55  1  0
 15 16  2  0
 15 56  1  0
 16 17  1  0
 17 18  1  0
 18 19  2  0
 18 23  1  0
 19 20  1  0
 19 57  1  0
 20 21  2  0
 20 58  1  0
 21 22  1  0
 21 59  1  0
 22 23  2  0
 22 60  1  0
 24 25  1  0
 24 61  1  0
 25 26  2  0
 26 27  1  0
 26 45  1  0
 27 28  2  0
 27 62  1  0
 28 29  1  0
 28 43  1  0
 29 30  1  0
 29 42  1  0
 30 31  2  0
 30 35  1  0
 31 32  1  0
 31 63  1  0
 32 33  2  0
 32 64  1  0
 33 34  1  0
 33 65  1  0
 34 35  2  0
 34 66  1  0
 35 36  1  0
 36 37  1  0
 37 38  2  0
 37 42  1  0
 38 39  1  0
 38 67  1  0
 39 40  2  0
 39 68  1  0
 40 41  1  0
 40 69  1  0
 41 42  2  0
 41 70  1  0
 43 44  2  0
 43 71  1  0
 44 45  1  0
 44 72  1  0
 45 46  2  0
 46 47  1  0
 47 48  2  0
 48 49  1  0
 49 50  3  0
M  END

