
     RDKit          3D

 71 79  0  0  0  0  0  0  0  0999 V2000
   -2.4084   -2.4185   -3.7957 C   0  0  0  0  0  0  0  0  0  0  0  0
   -2.1677   -1.0416   -3.8115 C   0  0  0  0  0  0  0  0  0  0  0  0
   -2.5137   -0.2541   -2.7096 C   0  0  0  0  0  0  0  0  0  0  0  0
   -3.0973   -0.8478   -1.5848 C   0  0  0  0  0  0  0  0  0  0  0  0
   -3.4344   -0.0488   -0.4466 N   0  0  0  0  0  0  0  0  0  0  0  0
   -2.4916    0.4968    0.4338 C   0  0  0  0  0  0  0  0  0  0  0  0
   -1.0308    0.3348    0.3251 C   0  0  0  0  0  0  0  0  0  0  0  0
   -0.3986   -0.8850    0.0130 C   0  0  0  0  0  0  0  0  0  0  0  0
    0.9904   -0.9877   -0.0215 C   0  0  0  0  0  0  0  0  0  0  0  0
    1.8205    0.1149    0.2579 C   0  0  0  0  0  0  0  0  0  0  0  0
    3.2998    0.0001    0.2188 C   0  0  0  0  0  0  0  0  0  0  0  0
    3.9433   -0.8581   -0.6950 C   0  0  0  0  0  0  0  0  0  0  0  0
    5.3311   -0.9651   -0.7330 C   0  0  0  0  0  0  0  0  0  0  0  0
    6.1402   -0.2181    0.1422 C   0  0  0  0  0  0  0  0  0  0  0  0
    7.6082   -0.3084    0.1236 C   0  0  0  0  0  0  0  0  0  0  0  0
    8.4073   -1.1119   -0.6897 C   0  0  0  0  0  0  0  0  0  0  0  0
    9.7055   -0.8366   -0.3309 N   0  0  0  0  0  0  0  0  0  0  0  0
   10.9008   -1.3294   -0.7932 C   0  0  0  0  0  0  0  0  0  0  0  0
   12.0721   -0.8729   -0.2488 C   0  0  0  0  0  0  0  0  0  0  0  0
   12.0511    0.1051    0.7890 C   0  0  0  0  0  0  0  0  0  0  0  0
   10.8533    0.5992    1.2537 C   0  0  0  0  0  0  0  0  0  0  0  0
    9.6374    0.1311    0.6948 C   0  0  0  0  0  0  0  0  0  0  0  0
    8.3793    0.4439    0.9638 N   0  0  0  0  0  0  0  0  0  0  0  0
    5.5039    0.6395    1.0574 C   0  0  0  0  0  0  0  0  0  0  0  0
    4.1162    0.7447    1.0931 C   0  0  0  0  0  0  0  0  0  0  0  0
    1.1867    1.3315    0.5768 C   0  0  0  0  0  0  0  0  0  0  0  0
   -0.2012    1.4397    0.6063 C   0  0  0  0  0  0  0  0  0  0  0  0
   -3.1732    1.1936    1.4144 C   0  0  0  0  0  0  0  0  0  0  0  0
   -4.5645    1.0807    1.1466 C   0  0  0  0  0  0  0  0  0  0  0  0
   -5.7084    1.5803    1.8680 C   0  0  0  0  0  0  0  0  0  0  0  0
   -5.5677    2.3147    3.0682 C   0  0  0  0  0  0  0  0  0  0  0  0
   -6.6757    2.7661    3.7658 C   0  0  0  0  0  0  0  0  0  0  0  0
   -7.9645    2.4893    3.2750 C   0  0  0  0  0  0  0  0  0  0  0  0
   -8.1211    1.7756    2.0966 C   0  0  0  0  0  0  0  0  0  0  0  0
   -7.0095    1.3046    1.3553 C   0  0  0  0  0  0  0  0  0  0  0  0
   -7.1566    0.5737    0.0892 C   0  0  0  0  0  0  0  0  0  0  0  0
   -8.4331    0.3457   -0.4769 C   0  0  0  0  0  0  0  0  0  0  0  0
   -8.6018   -0.3025   -1.6902 C   0  0  0  0  0  0  0  0  0  0  0  0
   -7.4752   -0.7437   -2.4012 C   0  0  0  0  0  0  0  0  0  0  0  0
   -6.2073   -0.5478   -1.8781 C   0  0  0  0  0  0  0  0  0  0  0  0
   -6.0072    0.0902   -0.6271 C   0  0  0  0  0  0  0  0  0  0  0  0
   -4.7123    0.3242   -0.0259 C   0  0  0  0  0  0  0  0  0  0  0  0
   -3.3307   -2.2300   -1.5630 C   0  0  0  0  0  0  0  0  0  0  0  0
   -2.9918   -3.0107   -2.6699 C   0  0  0  0  0  0  0  0  0  0  0  0
   -2.1404   -3.0315   -4.6598 H   0  0  0  0  0  0  0  0  0  0  0  0
   -1.7111   -0.5743   -4.6875 H   0  0  0  0  0  0  0  0  0  0  0  0
   -2.3353    0.8228   -2.7137 H   0  0  0  0  0  0  0  0  0  0  0  0
   -0.9967   -1.7758   -0.1777 H   0  0  0  0  0  0  0  0  0  0  0  0
    1.4409   -1.9593   -0.2366 H   0  0  0  0  0  0  0  0  0  0  0  0
    3.3466   -1.4322   -1.4074 H   0  0  0  0  0  0  0  0  0  0  0  0
    5.7889   -1.6351   -1.4649 H   0  0  0  0  0  0  0  0  0  0  0  0
    8.1708   -1.8329   -1.4666 H   0  0  0  0  0  0  0  0  0  0  0  0
   10.8479   -2.0749   -1.5880 H   0  0  0  0  0  0  0  0  0  0  0  0
   13.0183   -1.2688   -0.6210 H   0  0  0  0  0  0  0  0  0  0  0  0
   12.9930    0.4594    1.2130 H   0  0  0  0  0  0  0  0  0  0  0  0
   10.7950    1.3469    2.0456 H   0  0  0  0  0  0  0  0  0  0  0  0
    6.1259    1.2146    1.7451 H   0  0  0  0  0  0  0  0  0  0  0  0
    3.6533    1.4002    1.8342 H   0  0  0  0  0  0  0  0  0  0  0  0
    1.7908    2.2206    0.7709 H   0  0  0  0  0  0  0  0  0  0  0  0
   -0.6599    2.4060    0.8273 H   0  0  0  0  0  0  0  0  0  0  0  0
   -2.7015    1.6912    2.2579 H   0  0  0  0  0  0  0  0  0  0  0  0
   -4.5655    2.5222    3.4492 H   0  0  0  0  0  0  0  0  0  0  0  0
   -6.5490    3.3305    4.6932 H   0  0  0  0  0  0  0  0  0  0  0  0
   -8.8458    2.8363    3.8202 H   0  0  0  0  0  0  0  0  0  0  0  0
   -9.1340    1.5793    1.7448 H   0  0  0  0  0  0  0  0  0  0  0  0
   -9.3217    0.6978    0.0465 H   0  0  0  0  0  0  0  0  0  0  0  0
   -9.6063   -0.4551   -2.0926 H   0  0  0  0  0  0  0  0  0  0  0  0
   -7.5909   -1.2373   -3.3695 H   0  0  0  0  0  0  0  0  0  0  0  0
   -5.3509   -0.8842   -2.4553 H   0  0  0  0  0  0  0  0  0  0  0  0
   -3.7853   -2.6805   -0.6781 H   0  0  0  0  0  0  0  0  0  0  0  0
   -3.1800   -4.0870   -2.6514 H   0  0  0  0  0  0  0  0  0  0  0  0
  1  2  2  0
  1 44  1  0
  1 45  1  0
  2  3  1  0
  2 46  1  0
  3  4  2  0
  3 47  1  0
  4  5  1  0
  4 43  1  0
  5  6  1  0
  5 42  1  0
  6  7  1  0
  6 28  2  0
  7  8  2  0
  7 27  1  0
  8  9  1  0
  8 48  1  0
  9 10  2  0
  9 49  1  0
 10 11  1  0
 10 26  1  0
 11 12  2  0
 11 25  1  0
 12 13  1  0
 12 50  1  0
 13 14  2  0
 13 51  1  0
 14 15  1  0
 14 24  1  0
 15 16  2  0
 15 23  1  0
 16 17  1  0
 16 52  1  0
 17 18  1  0
 17 22  1  0
 18 19  2  0
 18 53  1  0
 19 20  1  0
 19 54  1  0
 20 21  2  0
 20 55  1  0
 21 22  1  0
 21 56  1  0
 22 23  2  0
 24 25  2  0
 24 57  1  0
 25 58  1  0
 26 27  2  0
 26 59  1  0
 27 60  1  0
 28 29  1  0
 28 61  1  0
 29 30  2  0
 29 42  1  0
 30 31  1  0
 30 35  1  0
 31 32  2  0
 31 62  1  0
 32 33  1  0
 32 63  1  0
 33 34  2  0
 33 64  1  0
 34 35  1  0
 34 65  1  0
 35 36  2  0
 36 37  1  0
 36 41  1  0
 37 38  2  0
 37 66  1  0
 38 39  1  0
 38 67  1  0
 39 40  2  0
 39 68  1  0
 40 41  1  0
 40 69  1  0
 41 42  2  0
 43 44  2  0
 43 70  1  0
 44 71  1  0
M  END

