
     RDKit          3D

249267  0  0  0  0  0  0  0  0999 V2000
    9.7560    2.1251    1.6921 C   0  0  0  0  0  0  0  0  0  0  0  0
   10.1633    2.9038    2.9646 C   0  0  1  0  0  0  0  0  0  0  0  0
    9.4063    2.3261    4.1830 C   0  0  0  0  0  0  0  0  0  0  0  0
   11.6705    2.6899    3.1930 C   0  0  0  0  0  0  0  0  0  0  0  0
    9.8064    4.3949    2.7966 C   0  0  0  0  0  0  0  0  0  0  0  0
    8.4572    4.7667    2.5691 C   0  0  0  0  0  0  0  0  0  0  0  0
    8.0495    6.0899    2.4148 C   0  0  0  0  0  0  0  0  0  0  0  0
    9.0237    7.0924    2.4939 C   0  0  0  0  0  0  0  0  0  0  0  0
   10.3846    6.7582    2.7064 C   0  0  0  0  0  0  0  0  0  0  0  0
   10.7624    5.4148    2.8581 C   0  0  0  0  0  0  0  0  0  0  0  0
   11.1254    8.0054    2.7020 C   0  0  0  0  0  0  0  0  0  0  0  0
   12.4828    8.3198    2.8727 C   0  0  0  0  0  0  0  0  0  0  0  0
   12.9159    9.6497    2.8366 C   0  0  0  0  0  0  0  0  0  0  0  0
   14.3942   10.0519    3.0142 C   0  0  1  0  0  0  0  0  0  0  0  0
   14.8834   10.7964    1.7500 C   0  0  0  0  0  0  0  0  0  0  0  0
   14.5353   10.9809    4.2424 C   0  0  0  0  0  0  0  0  0  0  0  0
   15.3060    8.8308    3.2316 C   0  0  0  0  0  0  0  0  0  0  0  0
   11.9397   10.6571    2.6310 C   0  0  0  0  0  0  0  0  0  0  0  0
   10.5857   10.3789    2.4583 C   0  0  0  0  0  0  0  0  0  0  0  0
   10.1803    9.0391    2.4853 C   0  0  0  0  0  0  0  0  0  0  0  0
    8.9043    8.4797    2.3595 N   0  0  0  0  0  0  0  0  0  0  0  0
    7.7006    9.1939    2.1327 C   0  0  0  0  0  0  0  0  0  0  0  0
    7.5791   10.0630    1.0369 C   0  0  0  0  0  0  0  0  0  0  0  0
    6.4027   10.7781    0.8230 C   0  0  0  0  0  0  0  0  0  0  0  0
    5.2962   10.6171    1.6781 C   0  0  0  0  0  0  0  0  0  0  0  0
    4.0915   11.3279    1.4487 N   0  0  0  0  0  0  0  0  0  0  0  0
    3.6089   11.5086    0.1267 C   0  0  0  0  0  0  0  0  0  0  0  0
    3.6461   10.4584   -0.8099 C   0  0  0  0  0  0  0  0  0  0  0  0
    3.1765   10.6429   -2.1061 C   0  0  0  0  0  0  0  0  0  0  0  0
    2.6261   11.8731   -2.5249 C   0  0  0  0  0  0  0  0  0  0  0  0
    2.1139   12.0446   -3.8876 C   0  0  0  0  0  0  0  0  0  0  0  0
    1.7837   11.0776   -4.8201 C   0  0  0  0  0  0  0  0  0  0  0  0
    1.3088   11.6039   -6.0482 C   0  0  0  0  0  0  0  0  0  0  0  0
    1.2645   12.9862   -6.0848 C   0  0  0  0  0  0  0  0  0  0  0  0
    0.8268   13.8649   -7.1734 C   0  0  0  0  0  0  0  0  0  0  0  0
    0.5133   15.2229   -6.9584 C   0  0  0  0  0  0  0  0  0  0  0  0
    0.0949   16.0499   -7.9963 C   0  0  0  0  0  0  0  0  0  0  0  0
   -0.0521   15.5473   -9.3023 C   0  0  0  0  0  0  0  0  0  0  0  0
   -0.4953   16.3809  -10.3596 N   0  0  0  0  0  0  0  0  0  0  0  0
    0.0880   16.2638  -11.6485 C   0  0  0  0  0  0  0  0  0  0  0  0
   -0.7146   16.2590  -12.8035 C   0  0  0  0  0  0  0  0  0  0  0  0
   -0.1423   16.1368  -14.0683 C   0  0  0  0  0  0  0  0  0  0  0  0
    1.2489   16.0198  -14.2159 C   0  0  0  0  0  0  0  0  0  0  0  0
    1.8308   15.8918  -15.5022 N   0  0  0  0  0  0  0  0  0  0  0  0
    1.6420   16.7618  -16.5816 C   0  0  0  0  0  0  0  0  0  0  0  0
    0.9029   17.9477  -16.6679 C   0  0  0  0  0  0  0  0  0  0  0  0
    0.9012   18.6322  -17.8812 C   0  0  0  0  0  0  0  0  0  0  0  0
    1.6152   18.1851  -19.0216 C   0  0  0  0  0  0  0  0  0  0  0  0
    1.5441   19.0007  -20.3289 C   0  0  1  0  0  0  0  0  0  0  0  0
    2.0707   20.4330  -20.0783 C   0  0  0  0  0  0  0  0  0  0  0  0
    2.3879   18.3722  -21.4526 C   0  0  0  0  0  0  0  0  0  0  0  0
    0.0769   19.0716  -20.8126 C   0  0  0  0  0  0  0  0  0  0  0  0
    2.3591   17.0060  -18.9044 C   0  0  0  0  0  0  0  0  0  0  0  0
    2.3814   16.2922  -17.6959 C   0  0  0  0  0  0  0  0  0  0  0  0
    3.0490   15.0765  -17.2708 C   0  0  0  0  0  0  0  0  0  0  0  0
    3.8947   14.1642  -17.9214 C   0  0  0  0  0  0  0  0  0  0  0  0
    4.3782   13.0367  -17.2488 C   0  0  0  0  0  0  0  0  0  0  0  0
    5.3077   12.0015  -17.9147 C   0  0  1  0  0  0  0  0  0  0  0  0
    6.6312   11.9049  -17.1209 C   0  0  0  0  0  0  0  0  0  0  0  0
    4.6158   10.6182  -17.9266 C   0  0  0  0  0  0  0  0  0  0  0  0
    5.6493   12.3775  -19.3678 C   0  0  0  0  0  0  0  0  0  0  0  0
    3.9798   12.8498  -15.9010 C   0  0  0  0  0  0  0  0  0  0  0  0
    3.1445   13.7370  -15.2262 C   0  0  0  0  0  0  0  0  0  0  0  0
    2.6847   14.8641  -15.9178 C   0  0  0  0  0  0  0  0  0  0  0  0
    2.0531   16.0292  -13.0651 C   0  0  0  0  0  0  0  0  0  0  0  0
    1.4816   16.1470  -11.7996 C   0  0  0  0  0  0  0  0  0  0  0  0
   -1.5276   17.3282  -10.1364 C   0  0  0  0  0  0  0  0  0  0  0  0
   -1.4446   18.6234  -10.6796 C   0  0  0  0  0  0  0  0  0  0  0  0
   -2.4545   19.5568  -10.4541 C   0  0  0  0  0  0  0  0  0  0  0  0
   -3.5783   19.2230   -9.6822 C   0  0  0  0  0  0  0  0  0  0  0  0
   -4.6009   20.1762   -9.4441 N   0  0  0  0  0  0  0  0  0  0  0  0
   -5.3164   20.8779  -10.4198 C   0  0  0  0  0  0  0  0  0  0  0  0
   -5.2548   20.7996  -11.8163 C   0  0  0  0  0  0  0  0  0  0  0  0
   -6.1111   21.6119  -12.5563 C   0  0  0  0  0  0  0  0  0  0  0  0
   -7.0370   22.5047  -11.9600 C   0  0  0  0  0  0  0  0  0  0  0  0
   -7.9429   23.3699  -12.8596 C   0  0  1  0  0  0  0  0  0  0  0  0
   -8.8205   22.4548  -13.7449 C   0  0  0  0  0  0  0  0  0  0  0  0
   -8.8762   24.2795  -12.0400 C   0  0  0  0  0  0  0  0  0  0  0  0
   -7.0682   24.2704  -13.7627 C   0  0  0  0  0  0  0  0  0  0  0  0
   -7.0876   22.5545  -10.5626 C   0  0  0  0  0  0  0  0  0  0  0  0
   -6.2394   21.7481   -9.7876 C   0  0  0  0  0  0  0  0  0  0  0  0
   -6.0732   21.5649   -8.3582 C   0  0  0  0  0  0  0  0  0  0  0  0
   -6.6827   22.1466   -7.2353 C   0  0  0  0  0  0  0  0  0  0  0  0
   -6.2944   21.7771   -5.9428 C   0  0  0  0  0  0  0  0  0  0  0  0
   -6.9334   22.3777   -4.6740 C   0  0  1  0  0  0  0  0  0  0  0  0
   -8.0182   23.4180   -5.0072 C   0  0  0  0  0  0  0  0  0  0  0  0
   -7.5876   21.2500   -3.8423 C   0  0  0  0  0  0  0  0  0  0  0  0
   -5.8451   23.0752   -3.8249 C   0  0  0  0  0  0  0  0  0  0  0  0
   -5.2675   20.8082   -5.8131 C   0  0  0  0  0  0  0  0  0  0  0  0
   -4.6428   20.2123   -6.9062 C   0  0  0  0  0  0  0  0  0  0  0  0
   -5.0583   20.5904   -8.1886 C   0  0  0  0  0  0  0  0  0  0  0  0
   -3.6676   17.9294   -9.1444 C   0  0  0  0  0  0  0  0  0  0  0  0
   -2.6572   16.9959   -9.3664 C   0  0  0  0  0  0  0  0  0  0  0  0
    0.2541   14.1918   -9.5288 C   0  0  0  0  0  0  0  0  0  0  0  0
    0.6939   13.3771   -8.4908 C   0  0  0  0  0  0  0  0  0  0  0  0
    1.8397   13.6347   -4.5647 S   0  0  0  0  0  0  0  0  0  0  0  0
    2.5884   12.9151   -1.5754 C   0  0  0  0  0  0  0  0  0  0  0  0
    3.0770   12.7442   -0.2837 C   0  0  0  0  0  0  0  0  0  0  0  0
    3.3599   11.8613    2.5420 C   0  0  0  0  0  0  0  0  0  0  0  0
    4.0157   12.5218    3.5967 C   0  0  0  0  0  0  0  0  0  0  0  0
    3.2933   13.0498    4.6654 C   0  0  0  0  0  0  0  0  0  0  0  0
    1.8955   12.9303    4.7128 C   0  0  0  0  0  0  0  0  0  0  0  0
    1.1594   13.4683    5.7987 N   0  0  0  0  0  0  0  0  0  0  0  0
    0.1024   14.3795    5.7013 C   0  0  0  0  0  0  0  0  0  0  0  0
   -0.4528   15.0014    4.5764 C   0  0  0  0  0  0  0  0  0  0  0  0
   -1.5010   15.8972    4.7739 C   0  0  0  0  0  0  0  0  0  0  0  0
   -2.0227   16.2061    6.0555 C   0  0  0  0  0  0  0  0  0  0  0  0
   -3.1897   17.2073    6.1771 C   0  0  1  0  0  0  0  0  0  0  0  0
   -4.4129   16.6719    5.3968 C   0  0  0  0  0  0  0  0  0  0  0  0
   -3.6149   17.4292    7.6398 C   0  0  0  0  0  0  0  0  0  0  0  0
   -2.7648   18.5731    5.5894 C   0  0  0  0  0  0  0  0  0  0  0  0
   -1.4423   15.5803    7.1642 C   0  0  0  0  0  0  0  0  0  0  0  0
   -0.3838   14.6730    6.9997 C   0  0  0  0  0  0  0  0  0  0  0  0
    0.4172   13.8990    7.9290 C   0  0  0  0  0  0  0  0  0  0  0  0
    0.4020   13.7555    9.3252 C   0  0  0  0  0  0  0  0  0  0  0  0
    1.3050   12.8979    9.9630 C   0  0  0  0  0  0  0  0  0  0  0  0
    1.3348   12.7048   11.4932 C   0  0  1  0  0  0  0  0  0  0  0  0
    1.0904   11.2164   11.8345 C   0  0  0  0  0  0  0  0  0  0  0  0
    2.7153   13.1364   12.0406 C   0  0  0  0  0  0  0  0  0  0  0  0
    0.2554   13.5403   12.2047 C   0  0  0  0  0  0  0  0  0  0  0  0
    2.2225   12.1828    9.1524 C   0  0  0  0  0  0  0  0  0  0  0  0
    2.2633   12.3019    7.7651 C   0  0  0  0  0  0  0  0  0  0  0  0
    1.3557   13.1743    7.1524 C   0  0  0  0  0  0  0  0  0  0  0  0
    1.2384   12.2693    3.6632 C   0  0  0  0  0  0  0  0  0  0  0  0
    1.9590   11.7437    2.5927 C   0  0  0  0  0  0  0  0  0  0  0  0
    5.4158    9.7314    2.7655 C   0  0  0  0  0  0  0  0  0  0  0  0
    6.6060    9.0457    2.9991 C   0  0  0  0  0  0  0  0  0  0  0  0
   10.0051    1.0559    1.7968 H   0  0  0  0  0  0  0  0  0  0  0  0
   10.2843    2.5130    0.8066 H   0  0  0  0  0  0  0  0  0  0  0  0
    8.6756    2.1959    1.4940 H   0  0  0  0  0  0  0  0  0  0  0  0
    9.6483    1.2588    4.3193 H   0  0  0  0  0  0  0  0  0  0  0  0
    8.3150    2.4070    4.0643 H   0  0  0  0  0  0  0  0  0  0  0  0
    9.6823    2.8587    5.1070 H   0  0  0  0  0  0  0  0  0  0  0  0
   11.8821    1.6150    3.3087 H   0  0  0  0  0  0  0  0  0  0  0  0
   12.0235    3.1958    4.1052 H   0  0  0  0  0  0  0  0  0  0  0  0
   12.2706    3.0553    2.3450 H   0  0  0  0  0  0  0  0  0  0  0  0
    7.6917    3.9897    2.5091 H   0  0  0  0  0  0  0  0  0  0  0  0
    7.0002    6.3279    2.2332 H   0  0  0  0  0  0  0  0  0  0  0  0
   11.8152    5.1835    3.0213 H   0  0  0  0  0  0  0  0  0  0  0  0
   13.1904    7.5071    3.0377 H   0  0  0  0  0  0  0  0  0  0  0  0
   14.3001   11.7102    1.5588 H   0  0  0  0  0  0  0  0  0  0  0  0
   14.8005   10.1549    0.8582 H   0  0  0  0  0  0  0  0  0  0  0  0
   15.9398   11.0930    1.8600 H   0  0  0  0  0  0  0  0  0  0  0  0
   13.9383   11.8993    4.1341 H   0  0  0  0  0  0  0  0  0  0  0  0
   15.5870   11.2822    4.3809 H   0  0  0  0  0  0  0  0  0  0  0  0
   14.2023   10.4724    5.1612 H   0  0  0  0  0  0  0  0  0  0  0  0
   15.2756    8.1370    2.3768 H   0  0  0  0  0  0  0  0  0  0  0  0
   15.0315    8.2686    4.1381 H   0  0  0  0  0  0  0  0  0  0  0  0
   16.3502    9.1603    3.3518 H   0  0  0  0  0  0  0  0  0  0  0  0
   12.2501   11.7041    2.6071 H   0  0  0  0  0  0  0  0  0  0  0  0
    9.8690   11.1884    2.3115 H   0  0  0  0  0  0  0  0  0  0  0  0
    8.4190   10.1814    0.3496 H   0  0  0  0  0  0  0  0  0  0  0  0
    6.3324   11.4609   -0.0254 H   0  0  0  0  0  0  0  0  0  0  0  0
    4.0546    9.4895   -0.5168 H   0  0  0  0  0  0  0  0  0  0  0  0
    3.2403    9.8105   -2.8096 H   0  0  0  0  0  0  0  0  0  0  0  0
    1.8533   10.0082   -4.6177 H   0  0  0  0  0  0  0  0  0  0  0  0
    0.9796   10.9763   -6.8772 H   0  0  0  0  0  0  0  0  0  0  0  0
    0.5983   15.6453   -5.9541 H   0  0  0  0  0  0  0  0  0  0  0  0
   -0.1285   17.0988   -7.7941 H   0  0  0  0  0  0  0  0  0  0  0  0
   -1.7991   16.3339  -12.7049 H   0  0  0  0  0  0  0  0  0  0  0  0
   -0.7811   16.1058  -14.9530 H   0  0  0  0  0  0  0  0  0  0  0  0
    0.3432   18.3341  -15.8146 H   0  0  0  0  0  0  0  0  0  0  0  0
    0.3191   19.5546  -17.9429 H   0  0  0  0  0  0  0  0  0  0  0  0
    3.1184   20.4139  -19.7383 H   0  0  0  0  0  0  0  0  0  0  0  0
    1.4812   20.9610  -19.3133 H   0  0  0  0  0  0  0  0  0  0  0  0
    2.0234   21.0297  -21.0044 H   0  0  0  0  0  0  0  0  0  0  0  0
    3.4544   18.3164  -21.1837 H   0  0  0  0  0  0  0  0  0  0  0  0
    2.3092   18.9837  -22.3653 H   0  0  0  0  0  0  0  0  0  0  0  0
    2.0450   17.3567  -21.7053 H   0  0  0  0  0  0  0  0  0  0  0  0
   -0.5777   19.5511  -20.0689 H   0  0  0  0  0  0  0  0  0  0  0  0
   -0.3223   18.0636  -21.0085 H   0  0  0  0  0  0  0  0  0  0  0  0
    0.0045   19.6550  -21.7457 H   0  0  0  0  0  0  0  0  0  0  0  0
    2.9341   16.6238  -19.7481 H   0  0  0  0  0  0  0  0  0  0  0  0
    4.1626   14.3499  -18.9617 H   0  0  0  0  0  0  0  0  0  0  0  0
    6.4641   11.5926  -16.0787 H   0  0  0  0  0  0  0  0  0  0  0  0
    7.1499   12.8765  -17.0995 H   0  0  0  0  0  0  0  0  0  0  0  0
    7.3072   11.1672  -17.5844 H   0  0  0  0  0  0  0  0  0  0  0  0
    4.3788   10.2683  -16.9102 H   0  0  0  0  0  0  0  0  0  0  0  0
    5.2683    9.8627  -18.3952 H   0  0  0  0  0  0  0  0  0  0  0  0
    3.6728   10.6541  -18.4953 H   0  0  0  0  0  0  0  0  0  0  0  0
    6.1693   13.3464  -19.4295 H   0  0  0  0  0  0  0  0  0  0  0  0
    4.7503   12.4308  -20.0016 H   0  0  0  0  0  0  0  0  0  0  0  0
    6.3155   11.6165  -19.8041 H   0  0  0  0  0  0  0  0  0  0  0  0
    4.3356   11.9727  -15.3556 H   0  0  0  0  0  0  0  0  0  0  0  0
    2.8580   13.5475  -14.1906 H   0  0  0  0  0  0  0  0  0  0  0  0
    3.1381   15.9662  -13.1677 H   0  0  0  0  0  0  0  0  0  0  0  0
    2.1215   16.1633  -10.9155 H   0  0  0  0  0  0  0  0  0  0  0  0
   -0.5700   18.9046  -11.2689 H   0  0  0  0  0  0  0  0  0  0  0  0
   -2.3621   20.5666  -10.8588 H   0  0  0  0  0  0  0  0  0  0  0  0
   -4.5629   20.1215  -12.3186 H   0  0  0  0  0  0  0  0  0  0  0  0
   -6.0583   21.5470  -13.6455 H   0  0  0  0  0  0  0  0  0  0  0  0
   -9.4628   21.8072  -13.1270 H   0  0  0  0  0  0  0  0  0  0  0  0
   -8.2138   21.8028  -14.3919 H   0  0  0  0  0  0  0  0  0  0  0  0
   -9.4725   23.0578  -14.3986 H   0  0  0  0  0  0  0  0  0  0  0  0
   -9.5538   23.6992  -11.3943 H   0  0  0  0  0  0  0  0  0  0  0  0
   -9.5022   24.8814  -12.7176 H   0  0  0  0  0  0  0  0  0  0  0  0
   -8.3127   24.9791  -11.4027 H   0  0  0  0  0  0  0  0  0  0  0  0
   -6.4032   23.6807  -14.4123 H   0  0  0  0  0  0  0  0  0  0  0  0
   -6.4359   24.9400  -13.1579 H   0  0  0  0  0  0  0  0  0  0  0  0
   -7.7004   24.8958  -14.4147 H   0  0  0  0  0  0  0  0  0  0  0  0
   -7.7879   23.2169  -10.0534 H   0  0  0  0  0  0  0  0  0  0  0  0
   -7.4610   22.8936   -7.3919 H   0  0  0  0  0  0  0  0  0  0  0  0
   -8.8440   22.9794   -5.5889 H   0  0  0  0  0  0  0  0  0  0  0  0
   -7.6110   24.2672   -5.5780 H   0  0  0  0  0  0  0  0  0  0  0  0
   -8.4480   23.8212   -4.0764 H   0  0  0  0  0  0  0  0  0  0  0  0
   -8.3722   20.7375   -4.4214 H   0  0  0  0  0  0  0  0  0  0  0  0
   -8.0504   21.6603   -2.9292 H   0  0  0  0  0  0  0  0  0  0  0  0
   -6.8535   20.4911   -3.5313 H   0  0  0  0  0  0  0  0  0  0  0  0
   -5.3639   23.8880   -4.3918 H   0  0  0  0  0  0  0  0  0  0  0  0
   -5.0559   22.3750   -3.5108 H   0  0  0  0  0  0  0  0  0  0  0  0
   -6.2858   23.5100   -2.9124 H   0  0  0  0  0  0  0  0  0  0  0  0
   -4.9404   20.5072   -4.8153 H   0  0  0  0  0  0  0  0  0  0  0  0
   -3.8510   19.4764   -6.7575 H   0  0  0  0  0  0  0  0  0  0  0  0
   -4.5490   17.6489   -8.5645 H   0  0  0  0  0  0  0  0  0  0  0  0
   -2.7479   15.9913   -8.9493 H   0  0  0  0  0  0  0  0  0  0  0  0
    0.1495   13.7769  -10.5329 H   0  0  0  0  0  0  0  0  0  0  0  0
    0.9397   12.3363   -8.7102 H   0  0  0  0  0  0  0  0  0  0  0  0
    2.1666   13.8845   -1.8522 H   0  0  0  0  0  0  0  0  0  0  0  0
    3.0415   13.5761    0.4221 H   0  0  0  0  0  0  0  0  0  0  0  0
    5.1010   12.6353    3.5689 H   0  0  0  0  0  0  0  0  0  0  0  0
    3.8141   13.5833    5.4629 H   0  0  0  0  0  0  0  0  0  0  0  0
   -0.0786   14.8001    3.5714 H   0  0  0  0  0  0  0  0  0  0  0  0
   -1.9301   16.3786    3.8922 H   0  0  0  0  0  0  0  0  0  0  0  0
   -4.7448   15.7024    5.8012 H   0  0  0  0  0  0  0  0  0  0  0  0
   -4.1880   16.5283    4.3288 H   0  0  0  0  0  0  0  0  0  0  0  0
   -5.2571   17.3780    5.4673 H   0  0  0  0  0  0  0  0  0  0  0  0
   -3.9604   16.4973    8.1141 H   0  0  0  0  0  0  0  0  0  0  0  0
   -4.4477   18.1490    7.6817 H   0  0  0  0  0  0  0  0  0  0  0  0
   -2.7936   17.8390    8.2483 H   0  0  0  0  0  0  0  0  0  0  0  0
   -2.4890   18.4964    4.5265 H   0  0  0  0  0  0  0  0  0  0  0  0
   -1.8970   18.9821    6.1311 H   0  0  0  0  0  0  0  0  0  0  0  0
   -3.5894   19.3012    5.6668 H   0  0  0  0  0  0  0  0  0  0  0  0
   -1.7994   15.7894    8.1728 H   0  0  0  0  0  0  0  0  0  0  0  0
   -0.3303   14.3220    9.9007 H   0  0  0  0  0  0  0  0  0  0  0  0
    1.8569   10.5609   11.3938 H   0  0  0  0  0  0  0  0  0  0  0  0
    0.1096   10.8820   11.4603 H   0  0  0  0  0  0  0  0  0  0  0  0
    1.1095   11.0626   12.9263 H   0  0  0  0  0  0  0  0  0  0  0  0
    3.5341   12.5477   11.5994 H   0  0  0  0  0  0  0  0  0  0  0  0
    2.7591   13.0008   13.1342 H   0  0  0  0  0  0  0  0  0  0  0  0
    2.9115   14.1980   11.8211 H   0  0  0  0  0  0  0  0  0  0  0  0
   -0.7592   13.2644   11.8772 H   0  0  0  0  0  0  0  0  0  0  0  0
    0.3897   14.6194   12.0307 H   0  0  0  0  0  0  0  0  0  0  0  0
    0.3090   13.3721   13.2920 H   0  0  0  0  0  0  0  0  0  0  0  0
    2.9343   11.5018    9.6247 H   0  0  0  0  0  0  0  0  0  0  0  0
    2.9821   11.7248    7.1812 H   0  0  0  0  0  0  0  0  0  0  0  0
    0.1541   12.1481    3.7006 H   0  0  0  0  0  0  0  0  0  0  0  0
    1.4338   11.2226    1.7903 H   0  0  0  0  0  0  0  0  0  0  0  0
    4.5699    9.5901    3.4402 H   0  0  0  0  0  0  0  0  0  0  0  0
    6.6898    8.3805    3.8607 H   0  0  0  0  0  0  0  0  0  0  0  0
  2  1  1  6
  1128  1  0
  1129  1  0
  1130  1  0
  2  3  1  0
  2  4  1  0
  2  5  1  0
  3131  1  0
  3132  1  0
  3133  1  0
  4134  1  0
  4135  1  0
  4136  1  0
  5  6  2  0
  5 10  1  0
  6  7  1  0
  6137  1  0
  7  8  2  0
  7138  1  0
  8  9  1  0
  8 21  1  0
  9 10  2  0
  9 11  1  0
 10139  1  0
 11 12  2  0
 11 20  1  0
 12 13  1  0
 12140  1  0
 13 14  1  0
 13 18  2  0
 14 15  1  6
 14 16  1  0
 14 17  1  0
 15141  1  0
 15142  1  0
 15143  1  0
 16144  1  0
 16145  1  0
 16146  1  0
 17147  1  0
 17148  1  0
 17149  1  0
 18 19  1  0
 18150  1  0
 19 20  2  0
 19151  1  0
 20 21  1  0
 21 22  1  0
 22 23  2  0
 22127  1  0
 23 24  1  0
 23152  1  0
 24 25  2  0
 24153  1  0
 25 26  1  0
 25126  1  0
 26 27  1  0
 26 99  1  0
 27 28  2  0
 27 98  1  0
 28 29  1  0
 28154  1  0
 29 30  2  0
 29155  1  0
 30 31  1  0
 30 97  1  0
 31 32  2  0
 31 96  1  0
 32 33  1  0
 32156  1  0
 33 34  2  0
 33157  1  0
 34 35  1  0
 34 96  1  0
 35 36  2  0
 35 95  1  0
 36 37  1  0
 36158  1  0
 37 38  2  0
 37159  1  0
 38 39  1  0
 38 94  1  0
 39 40  1  0
 39 67  1  0
 40 41  2  0
 40 66  1  0
 41 42  1  0
 41160  1  0
 42 43  2  0
 42161  1  0
 43 44  1  0
 43 65  1  0
 44 45  1  0
 44 64  1  0
 45 46  2  0
 45 54  1  0
 46 47  1  0
 46162  1  0
 47 48  2  0
 47163  1  0
 48 49  1  0
 48 53  1  0
 49 50  1  1
 49 51  1  0
 49 52  1  0
 50164  1  0
 50165  1  0
 50166  1  0
 51167  1  0
 51168  1  0
 51169  1  0
 52170  1  0
 52171  1  0
 52172  1  0
 53 54  2  0
 53173  1  0
 54 55  1  0
 55 56  1  0
 55 64  2  0
 56 57  2  0
 56174  1  0
 57 58  1  0
 57 62  1  0
 58 59  1  1
 58 60  1  0
 58 61  1  0
 59175  1  0
 59176  1  0
 59177  1  0
 60178  1  0
 60179  1  0
 60180  1  0
 61181  1  0
 61182  1  0
 61183  1  0
 62 63  2  0
 62184  1  0
 63 64  1  0
 63185  1  0
 65 66  2  0
 65186  1  0
 66187  1  0
 67 68  2  0
 67 93  1  0
 68 69  1  0
 68188  1  0
 69 70  2  0
 69189  1  0
 70 71  1  0
 70 92  1  0
 71 72  1  0
 71 91  1  0
 72 73  2  0
 72 81  1  0
 73 74  1  0
 73190  1  0
 74 75  2  0
 74191  1  0
 75 76  1  0
 75 80  1  0
 76 77  1  6
 76 78  1  0
 76 79  1  0
 77192  1  0
 77193  1  0
 77194  1  0
 78195  1  0
 78196  1  0
 78197  1  0
 79198  1  0
 79199  1  0
 79200  1  0
 80 81  2  0
 80201  1  0
 81 82  1  0
 82 83  1  0
 82 91  2  0
 83 84  2  0
 83202  1  0
 84 85  1  0
 84 89  1  0
 85 86  1  6
 85 87  1  0
 85 88  1  0
 86203  1  0
 86204  1  0
 86205  1  0
 87206  1  0
 87207  1  0
 87208  1  0
 88209  1  0
 88210  1  0
 88211  1  0
 89 90  2  0
 89212  1  0
 90 91  1  0
 90213  1  0
 92 93  2  0
 92214  1  0
 93215  1  0
 94 95  2  0
 94216  1  0
 95217  1  0
 97 98  2  0
 97218  1  0
 98219  1  0
 99100  2  0
 99125  1  0
100101  1  0
100220  1  0
101102  2  0
101221  1  0
102103  1  0
102124  1  0
103104  1  0
103123  1  0
104105  2  0
104113  1  0
105106  1  0
105222  1  0
106107  2  0
106223  1  0
107108  1  0
107112  1  0
108109  1  6
108110  1  0
108111  1  0
109224  1  0
109225  1  0
109226  1  0
110227  1  0
110228  1  0
110229  1  0
111230  1  0
111231  1  0
111232  1  0
112113  2  0
112233  1  0
113114  1  0
114115  1  0
114123  2  0
115116  2  0
115234  1  0
116117  1  0
116121  1  0
117118  1  6
117119  1  0
117120  1  0
118235  1  0
118236  1  0
118237  1  0
119238  1  0
119239  1  0
119240  1  0
120241  1  0
120242  1  0
120243  1  0
121122  2  0
121244  1  0
122123  1  0
122245  1  0
124125  2  0
124246  1  0
125247  1  0
126127  2  0
126248  1  0
127249  1  0
M  END

