
     RDKit          3D

188192  0  0  0  0  0  0  0  0999 V2000
    8.6309    4.0573    2.9993 C   0  0  0  0  0  0  0  0  0  0  0  0
    9.5733    3.1037    3.4088 O   0  0  0  0  0  0  0  0  0  0  0  0
   10.1645    2.3951    2.3518 C   0  0  0  0  0  0  0  0  0  0  0  0
   11.1511    1.4033    2.9442 C   0  0  0  0  0  0  0  0  0  0  0  0
   11.7505    0.6972    1.8867 O   0  0  0  0  0  0  0  0  0  0  0  0
   12.6997   -0.2592    2.2887 C   0  0  0  0  0  0  0  0  0  0  0  0
   13.2755   -0.8837    1.0290 C   0  0  0  0  0  0  0  0  0  0  0  0
   14.2027   -1.8801    1.3956 O   0  0  0  0  0  0  0  0  0  0  0  0
   14.8556   -2.4779    0.3054 C   0  0  0  0  0  0  0  0  0  0  0  0
   15.9256   -3.4365    0.8061 C   0  0  0  0  0  0  0  0  0  0  0  0
   15.4384   -4.4814    1.6225 O   0  0  0  0  0  0  0  0  0  0  0  0
   14.7845   -5.5433    0.9724 C   0  0  0  0  0  0  0  0  0  0  0  0
   14.1113   -6.3611    2.0805 C   0  0  1  0  0  0  0  0  0  0  0  0
   12.8491   -5.6712    2.5673 C   0  0  0  0  0  0  0  0  0  0  0  0
   12.4392   -6.2536    3.7785 O   0  0  0  0  0  0  0  0  0  0  0  0
   11.3173   -5.6359    4.3917 C   0  0  0  0  0  0  0  0  0  0  0  0
   11.6341   -4.3572    5.1668 C   0  0  0  0  0  0  0  0  0  0  0  0
   12.2908   -4.5618    6.3921 O   0  0  0  0  0  0  0  0  0  0  0  0
   13.6657   -4.8925    6.3978 C   0  0  0  0  0  0  0  0  0  0  0  0
   14.5734   -3.9656    5.5998 C   0  0  0  0  0  0  0  0  0  0  0  0
   14.3550   -2.6320    5.9822 O   0  0  0  0  0  0  0  0  0  0  0  0
   15.0562   -1.6884    5.2077 C   0  0  0  0  0  0  0  0  0  0  0  0
   14.6691   -0.3047    5.7031 C   0  0  0  0  0  0  0  0  0  0  0  0
   15.2353    0.6508    4.8385 O   0  0  0  0  0  0  0  0  0  0  0  0
   15.0743    1.9758    5.2736 C   0  0  0  0  0  0  0  0  0  0  0  0
   13.7430   -7.6641    1.6284 O   0  0  0  0  0  0  0  0  0  0  0  0
   14.6233   -8.6832    1.5815 C   0  0  0  0  0  0  0  0  0  0  0  0
   15.9862   -8.5321    1.8091 C   0  0  0  0  0  0  0  0  0  0  0  0
   16.9061   -9.5965    1.6702 C   0  0  0  0  0  0  0  0  0  0  0  0
   18.3175   -9.4650    1.9030 C   0  0  0  0  0  0  0  0  0  0  0  0
   18.9708   -8.3178    2.2885 C   0  0  0  0  0  0  0  0  0  0  0  0
   20.3832   -8.1622    2.5241 C   0  0  0  0  0  0  0  0  0  0  0  0
   20.8896   -6.8929    2.9114 C   0  0  0  0  0  0  0  0  0  0  0  0
   22.2347   -6.6734    3.1488 C   0  0  0  0  0  0  0  0  0  0  0  0
   23.1821   -7.7278    3.0140 C   0  0  0  0  0  0  0  0  0  0  0  0
   24.6040   -7.6241    3.2308 C   0  0  0  0  0  0  0  0  0  0  0  0
   25.4132   -6.5680    3.6098 C   0  0  0  0  0  0  0  0  0  0  0  0
   24.8747   -5.2705    3.8840 C   0  0  0  0  0  0  0  0  0  0  0  0
   24.4709   -4.2028    4.1137 N   0  0  0  0  0  0  0  0  0  0  0  0
   26.8788   -6.6942    3.7644 C   0  0  0  0  0  0  0  0  0  0  0  0
   27.5904   -7.8737    3.4527 C   0  0  0  0  0  0  0  0  0  0  0  0
   28.9723   -7.9131    3.6297 C   0  0  0  0  0  0  0  0  0  0  0  0
   29.7020   -6.8891    4.0846 N   0  0  0  0  0  0  0  0  0  0  0  0
   29.0375   -5.7677    4.3789 C   0  0  0  0  0  0  0  0  0  0  0  0
   27.6576   -5.6177    4.2400 C   0  0  0  0  0  0  0  0  0  0  0  0
   22.6708   -9.0019    2.6274 C   0  0  0  0  0  0  0  0  0  0  0  0
   21.3283   -9.2175    2.3905 C   0  0  0  0  0  0  0  0  0  0  0  0
   16.3708  -10.8747    1.2537 C   0  0  0  0  0  0  0  0  0  0  0  0
   17.2821  -11.8534    1.0990 O   0  0  0  0  0  0  0  0  0  0  0  0
   16.9161  -13.2001    0.7830 C   0  0  1  0  0  0  0  0  0  0  0  0
   16.7902  -13.3690   -0.7338 C   0  0  0  0  0  0  0  0  0  0  0  0
   16.1650  -14.6070   -0.9568 O   0  0  0  0  0  0  0  0  0  0  0  0
   16.3335  -15.1884   -2.2317 C   0  0  0  0  0  0  0  0  0  0  0  0
   17.7254  -15.7832   -2.4595 C   0  0  0  0  0  0  0  0  0  0  0  0
   18.1118  -16.6886   -1.4512 O   0  0  0  0  0  0  0  0  0  0  0  0
   17.6591  -18.0225   -1.5903 C   0  0  0  0  0  0  0  0  0  0  0  0
   18.7297  -18.8944   -2.2390 C   0  0  0  0  0  0  0  0  0  0  0  0
   18.2190  -20.1993   -2.3232 O   0  0  0  0  0  0  0  0  0  0  0  0
   19.0696  -21.1607   -2.9044 C   0  0  0  0  0  0  0  0  0  0  0  0
   20.1549  -21.6888   -1.9771 C   0  0  0  0  0  0  0  0  0  0  0  0
   19.5637  -22.3991   -0.9233 O   0  0  0  0  0  0  0  0  0  0  0  0
   20.4820  -22.9150    0.0008 C   0  0  0  0  0  0  0  0  0  0  0  0
   17.9766  -14.1150    1.3682 C   0  0  0  0  0  0  0  0  0  0  0  0
   17.8317  -14.1443    2.7631 O   0  0  0  0  0  0  0  0  0  0  0  0
   18.7756  -14.9501    3.4264 C   0  0  0  0  0  0  0  0  0  0  0  0
   18.4661  -14.9129    4.9134 C   0  0  0  0  0  0  0  0  0  0  0  0
   19.4249  -15.6981    5.5737 O   0  0  0  0  0  0  0  0  0  0  0  0
   19.2643  -15.7623    6.9690 C   0  0  0  0  0  0  0  0  0  0  0  0
   20.3723  -16.6367    7.5314 C   0  0  0  0  0  0  0  0  0  0  0  0
   20.2098  -16.7023    8.9245 O   0  0  0  0  0  0  0  0  0  0  0  0
   21.1753  -17.4804    9.5866 C   0  0  0  0  0  0  0  0  0  0  0  0
   20.8660  -17.4549   11.0738 C   0  0  0  0  0  0  0  0  0  0  0  0
   21.8310  -18.2330   11.7320 O   0  0  0  0  0  0  0  0  0  0  0  0
   21.6622  -18.2933   13.1220 C   0  0  0  0  0  0  0  0  0  0  0  0
   15.0062  -11.0311    1.0472 C   0  0  0  0  0  0  0  0  0  0  0  0
   14.0760   -9.9794    1.2386 C   0  0  0  0  0  0  0  0  0  0  0  0
   12.6797  -10.2761    1.0821 C   0  0  0  0  0  0  0  0  0  0  0  0
   11.5863   -9.5367    1.4753 C   0  0  0  0  0  0  0  0  0  0  0  0
   10.2043   -9.9065    1.3000 C   0  0  0  0  0  0  0  0  0  0  0  0
    9.7685  -11.0565    0.5850 C   0  0  0  0  0  0  0  0  0  0  0  0
    8.4291  -11.3671    0.4473 C   0  0  0  0  0  0  0  0  0  0  0  0
    7.4159  -10.5443    1.0198 C   0  0  0  0  0  0  0  0  0  0  0  0
    5.9937  -10.7747    0.9390 C   0  0  0  0  0  0  0  0  0  0  0  0
    5.2444  -11.7800    0.3583 C   0  0  0  0  0  0  0  0  0  0  0  0
    5.8595  -12.8834   -0.3157 C   0  0  0  0  0  0  0  0  0  0  0  0
    6.3257  -13.7941   -0.8711 N   0  0  0  0  0  0  0  0  0  0  0  0
    3.7647  -11.8010    0.3944 C   0  0  0  0  0  0  0  0  0  0  0  0
    2.9900  -10.7313    0.8932 C   0  0  0  0  0  0  0  0  0  0  0  0
    1.5998  -10.8310    0.8994 C   0  0  0  0  0  0  0  0  0  0  0  0
    0.9207  -11.8930    0.4534 N   0  0  0  0  0  0  0  0  0  0  0  0
    1.6456  -12.9076   -0.0261 C   0  0  0  0  0  0  0  0  0  0  0  0
    3.0399  -12.9143   -0.0801 C   0  0  0  0  0  0  0  0  0  0  0  0
    7.8535   -9.3912    1.7308 C   0  0  0  0  0  0  0  0  0  0  0  0
    9.1940   -9.0825    1.8649 C   0  0  0  0  0  0  0  0  0  0  0  0
    8.2331    4.5471    3.9002 H   0  0  0  0  0  0  0  0  0  0  0  0
    7.7866    3.5968    2.4463 H   0  0  0  0  0  0  0  0  0  0  0  0
    9.0804    4.8328    2.3458 H   0  0  0  0  0  0  0  0  0  0  0  0
   10.6991    3.0736    1.6544 H   0  0  0  0  0  0  0  0  0  0  0  0
    9.4062    1.8485    1.7529 H   0  0  0  0  0  0  0  0  0  0  0  0
   10.6171    0.7200    3.6359 H   0  0  0  0  0  0  0  0  0  0  0  0
   11.9062    1.9490    3.5456 H   0  0  0  0  0  0  0  0  0  0  0  0
   12.2340   -1.0487    2.9155 H   0  0  0  0  0  0  0  0  0  0  0  0
   13.5126    0.1980    2.8865 H   0  0  0  0  0  0  0  0  0  0  0  0
   13.7605   -0.0948    0.4198 H   0  0  0  0  0  0  0  0  0  0  0  0
   12.4529   -1.3073    0.4171 H   0  0  0  0  0  0  0  0  0  0  0  0
   15.3545   -1.7147   -0.3285 H   0  0  0  0  0  0  0  0  0  0  0  0
   14.1253   -2.9982   -0.3502 H   0  0  0  0  0  0  0  0  0  0  0  0
   16.6379   -2.8763    1.4311 H   0  0  0  0  0  0  0  0  0  0  0  0
   16.4791   -3.8395   -0.0655 H   0  0  0  0  0  0  0  0  0  0  0  0
   15.5002   -6.1684    0.4044 H   0  0  0  0  0  0  0  0  0  0  0  0
   14.0181   -5.1932    0.2540 H   0  0  0  0  0  0  0  0  0  0  0  0
   14.8088   -6.4431    2.9294 H   0  0  0  0  0  0  0  0  0  0  0  0
   12.0600   -5.7717    1.7930 H   0  0  0  0  0  0  0  0  0  0  0  0
   13.0820   -4.5960    2.6730 H   0  0  0  0  0  0  0  0  0  0  0  0
   10.9036   -6.3777    5.0929 H   0  0  0  0  0  0  0  0  0  0  0  0
   10.5406   -5.4144    3.6305 H   0  0  0  0  0  0  0  0  0  0  0  0
   10.6712   -3.8842    5.4248 H   0  0  0  0  0  0  0  0  0  0  0  0
   12.1737   -3.6333    4.5266 H   0  0  0  0  0  0  0  0  0  0  0  0
   13.8398   -5.9253    6.0394 H   0  0  0  0  0  0  0  0  0  0  0  0
   13.9575   -4.8483    7.4588 H   0  0  0  0  0  0  0  0  0  0  0  0
   14.4171   -4.0821    4.5094 H   0  0  0  0  0  0  0  0  0  0  0  0
   15.6234   -4.2766    5.7907 H   0  0  0  0  0  0  0  0  0  0  0  0
   14.8050   -1.7853    4.1327 H   0  0  0  0  0  0  0  0  0  0  0  0
   16.1537   -1.8248    5.2983 H   0  0  0  0  0  0  0  0  0  0  0  0
   15.0269   -0.1649    6.7432 H   0  0  0  0  0  0  0  0  0  0  0  0
   13.5628   -0.2231    5.7275 H   0  0  0  0  0  0  0  0  0  0  0  0
   15.5583    2.6337    4.5369 H   0  0  0  0  0  0  0  0  0  0  0  0
   15.5461    2.1446    6.2623 H   0  0  0  0  0  0  0  0  0  0  0  0
   14.0057    2.2614    5.3545 H   0  0  0  0  0  0  0  0  0  0  0  0
   16.3738   -7.5547    2.0861 H   0  0  0  0  0  0  0  0  0  0  0  0
   18.8960  -10.3765    1.7537 H   0  0  0  0  0  0  0  0  0  0  0  0
   18.3847   -7.4055    2.4402 H   0  0  0  0  0  0  0  0  0  0  0  0
   20.1893   -6.0603    3.0252 H   0  0  0  0  0  0  0  0  0  0  0  0
   22.5587   -5.6768    3.4423 H   0  0  0  0  0  0  0  0  0  0  0  0
   25.1292   -8.5669    3.0658 H   0  0  0  0  0  0  0  0  0  0  0  0
   27.0891   -8.7617    3.0659 H   0  0  0  0  0  0  0  0  0  0  0  0
   29.5196   -8.8318    3.3849 H   0  0  0  0  0  0  0  0  0  0  0  0
   29.6360   -4.9273    4.7510 H   0  0  0  0  0  0  0  0  0  0  0  0
   27.1894   -4.6673    4.5028 H   0  0  0  0  0  0  0  0  0  0  0  0
   23.3714   -9.8343    2.5165 H   0  0  0  0  0  0  0  0  0  0  0  0
   20.9945  -10.2150    2.0981 H   0  0  0  0  0  0  0  0  0  0  0  0
   15.9548  -13.4534    1.2565 H   0  0  0  0  0  0  0  0  0  0  0  0
   17.7980  -13.3131   -1.1875 H   0  0  0  0  0  0  0  0  0  0  0  0
   16.1950  -12.5374   -1.1600 H   0  0  0  0  0  0  0  0  0  0  0  0
   16.1160  -14.4611   -3.0413 H   0  0  0  0  0  0  0  0  0  0  0  0
   15.5726  -15.9823   -2.2943 H   0  0  0  0  0  0  0  0  0  0  0  0
   18.4878  -14.9867   -2.4687 H   0  0  0  0  0  0  0  0  0  0  0  0
   17.7435  -16.2473   -3.4660 H   0  0  0  0  0  0  0  0  0  0  0  0
   16.7263  -18.0891   -2.1794 H   0  0  0  0  0  0  0  0  0  0  0  0
   17.4359  -18.4148   -0.5857 H   0  0  0  0  0  0  0  0  0  0  0  0
   19.6520  -18.8357   -1.6281 H   0  0  0  0  0  0  0  0  0  0  0  0
   18.9852  -18.5022   -3.2475 H   0  0  0  0  0  0  0  0  0  0  0  0
   19.5492  -20.7606   -3.8217 H   0  0  0  0  0  0  0  0  0  0  0  0
   18.4262  -22.0054   -3.1980 H   0  0  0  0  0  0  0  0  0  0  0  0
   20.7826  -20.8566   -1.5916 H   0  0  0  0  0  0  0  0  0  0  0  0
   20.8323  -22.3413   -2.5716 H   0  0  0  0  0  0  0  0  0  0  0  0
   19.9154  -23.4504    0.7766 H   0  0  0  0  0  0  0  0  0  0  0  0
   21.0770  -22.1155    0.4889 H   0  0  0  0  0  0  0  0  0  0  0  0
   21.1935  -23.6256   -0.4689 H   0  0  0  0  0  0  0  0  0  0  0  0
   18.9802  -13.7397    1.0767 H   0  0  0  0  0  0  0  0  0  0  0  0
   17.8513  -15.1186    0.9182 H   0  0  0  0  0  0  0  0  0  0  0  0
   19.8087  -14.5836    3.2565 H   0  0  0  0  0  0  0  0  0  0  0  0
   18.7375  -15.9972    3.0641 H   0  0  0  0  0  0  0  0  0  0  0  0
   17.4391  -15.2942    5.0878 H   0  0  0  0  0  0  0  0  0  0  0  0
   18.4874  -13.8620    5.2681 H   0  0  0  0  0  0  0  0  0  0  0  0
   18.2792  -16.1919    7.2430 H   0  0  0  0  0  0  0  0  0  0  0  0
   19.3193  -14.7545    7.4288 H   0  0  0  0  0  0  0  0  0  0  0  0
   21.3574  -16.2060    7.2579 H   0  0  0  0  0  0  0  0  0  0  0  0
   20.3187  -17.6438    7.0689 H   0  0  0  0  0  0  0  0  0  0  0  0
   22.1982  -17.0868    9.4158 H   0  0  0  0  0  0  0  0  0  0  0  0
   21.1661  -18.5293    9.2259 H   0  0  0  0  0  0  0  0  0  0  0  0
   19.8414  -17.8470   11.2438 H   0  0  0  0  0  0  0  0  0  0  0  0
   20.8743  -16.4049   11.4341 H   0  0  0  0  0  0  0  0  0  0  0  0
   22.4652  -18.9230   13.5327 H   0  0  0  0  0  0  0  0  0  0  0  0
   20.6860  -18.7388   13.4038 H   0  0  0  0  0  0  0  0  0  0  0  0
   21.7248  -17.2908   13.5929 H   0  0  0  0  0  0  0  0  0  0  0  0
   14.6067  -12.0017    0.7560 H   0  0  0  0  0  0  0  0  0  0  0  0
   12.4906  -11.2618    0.6457 H   0  0  0  0  0  0  0  0  0  0  0  0
   11.7601   -8.6002    2.0053 H   0  0  0  0  0  0  0  0  0  0  0  0
   10.5031  -11.7169    0.1199 H   0  0  0  0  0  0  0  0  0  0  0  0
    8.1568  -12.2591   -0.1136 H   0  0  0  0  0  0  0  0  0  0  0  0
    5.4093  -10.0043    1.4462 H   0  0  0  0  0  0  0  0  0  0  0  0
    3.4492   -9.8150    1.2661 H   0  0  0  0  0  0  0  0  0  0  0  0
    1.0023   -9.9967    1.2868 H   0  0  0  0  0  0  0  0  0  0  0  0
    1.0879  -13.7774   -0.3937 H   0  0  0  0  0  0  0  0  0  0  0  0
    3.5597  -13.7837   -0.4869 H   0  0  0  0  0  0  0  0  0  0  0  0
    7.1040   -8.7356    2.1825 H   0  0  0  0  0  0  0  0  0  0  0  0
    9.4920   -8.1901    2.4218 H   0  0  0  0  0  0  0  0  0  0  0  0
  1  2  1  0
  1 95  1  0
  1 96  1  0
  1 97  1  0
  2  3  1  0
  3  4  1  0
  3 98  1  0
  3 99  1  0
  4  5  1  0
  4100  1  0
  4101  1  0
  5  6  1  0
  6  7  1  0
  6102  1  0
  6103  1  0
  7  8  1  0
  7104  1  0
  7105  1  0
  8  9  1  0
  9 10  1  0
  9106  1  0
  9107  1  0
 10 11  1  0
 10108  1  0
 10109  1  0
 11 12  1  0
 12 13  1  0
 12110  1  0
 12111  1  0
 13 14  1  0
 13 26  1  0
 13112  1  1
 14 15  1  0
 14113  1  0
 14114  1  0
 15 16  1  0
 16 17  1  0
 16115  1  0
 16116  1  0
 17 18  1  0
 17117  1  0
 17118  1  0
 18 19  1  0
 19 20  1  0
 19119  1  0
 19120  1  0
 20 21  1  0
 20121  1  0
 20122  1  0
 21 22  1  0
 22 23  1  0
 22123  1  0
 22124  1  0
 23 24  1  0
 23125  1  0
 23126  1  0
 24 25  1  0
 25127  1  0
 25128  1  0
 25129  1  0
 26 27  1  0
 27 28  2  0
 27 76  1  0
 28 29  1  0
 28130  1  0
 29 30  1  0
 29 48  2  0
 30 31  2  0
 30131  1  0
 31 32  1  0
 31132  1  0
 32 33  2  0
 32 47  1  0
 33 34  1  0
 33133  1  0
 34 35  2  0
 34134  1  0
 35 36  1  0
 35 46  1  0
 36 37  2  0
 36135  1  0
 37 38  1  0
 37 40  1  0
 38 39  3  0
 40 41  2  0
 40 45  1  0
 41 42  1  0
 41136  1  0
 42 43  2  0
 42137  1  0
 43 44  1  0
 44 45  2  0
 44138  1  0
 45139  1  0
 46 47  2  0
 46140  1  0
 47141  1  0
 48 49  1  0
 48 75  1  0
 49 50  1  0
 50 51  1  0
 50 63  1  0
 50142  1  1
 51 52  1  0
 51143  1  0
 51144  1  0
 52 53  1  0
 53 54  1  0
 53145  1  0
 53146  1  0
 54 55  1  0
 54147  1  0
 54148  1  0
 55 56  1  0
 56 57  1  0
 56149  1  0
 56150  1  0
 57 58  1  0
 57151  1  0
 57152  1  0
 58 59  1  0
 59 60  1  0
 59153  1  0
 59154  1  0
 60 61  1  0
 60155  1  0
 60156  1  0
 61 62  1  0
 62157  1  0
 62158  1  0
 62159  1  0
 63 64  1  0
 63160  1  0
 63161  1  0
 64 65  1  0
 65 66  1  0
 65162  1  0
 65163  1  0
 66 67  1  0
 66164  1  0
 66165  1  0
 67 68  1  0
 68 69  1  0
 68166  1  0
 68167  1  0
 69 70  1  0
 69168  1  0
 69169  1  0
 70 71  1  0
 71 72  1  0
 71170  1  0
 71171  1  0
 72 73  1  0
 72172  1  0
 72173  1  0
 73 74  1  0
 74174  1  0
 74175  1  0
 74176  1  0
 75 76  2  0
 75177  1  0
 76 77  1  0
 77 78  2  0
 77178  1  0
 78 79  1  0
 78179  1  0
 79 80  2  0
 79 94  1  0
 80 81  1  0
 80180  1  0
 81 82  2  0
 81181  1  0
 82 83  1  0
 82 93  1  0
 83 84  2  0
 83182  1  0
 84 85  1  0
 84 87  1  0
 85 86  3  0
 87 88  2  0
 87 92  1  0
 88 89  1  0
 88183  1  0
 89 90  2  0
 89184  1  0
 90 91  1  0
 91 92  2  0
 91185  1  0
 92186  1  0
 93 94  2  0
 93187  1  0
 94188  1  0
M  END

