
     RDKit          3D

 83 92  0  0  0  0  0  0  0  0999 V2000
   -0.1579    0.0849    2.4450 C   0  0  0  0  0  0  0  0  0  0  0  0
    0.4753    0.0375    1.0777 C   0  0  0  0  0  0  0  0  0  0  0  0
    1.8666    0.0174    0.9242 C   0  0  0  0  0  0  0  0  0  0  0  0
    2.4738   -0.0269   -0.3415 C   0  0  0  0  0  0  0  0  0  0  0  0
    3.9559   -0.0505   -0.4647 C   0  0  0  0  0  0  0  0  0  0  0  0
    4.4844   -0.0982   -1.6936 N   0  0  0  0  0  0  0  0  0  0  0  0
    5.8221   -0.1230   -1.7642 C   0  0  0  0  0  0  0  0  0  0  0  0
    6.4536   -0.1759   -3.1081 C   0  0  0  0  0  0  0  0  0  0  0  0
    5.6595   -0.1950   -4.2684 C   0  0  0  0  0  0  0  0  0  0  0  0
    6.2543   -0.2445   -5.5292 C   0  0  0  0  0  0  0  0  0  0  0  0
    7.6481   -0.2760   -5.6477 C   0  0  0  0  0  0  0  0  0  0  0  0
    8.4454   -0.2574   -4.4981 C   0  0  0  0  0  0  0  0  0  0  0  0
    7.8536   -0.2075   -3.2359 C   0  0  0  0  0  0  0  0  0  0  0  0
    6.6209   -0.1030   -0.6895 N   0  0  0  0  0  0  0  0  0  0  0  0
    6.0148   -0.0524    0.5034 C   0  0  0  0  0  0  0  0  0  0  0  0
    6.8642   -0.0265    1.7223 C   0  0  0  0  0  0  0  0  0  0  0  0
    8.2656   -0.0692    1.6144 C   0  0  0  0  0  0  0  0  0  0  0  0
    9.0619   -0.0458    2.7594 C   0  0  0  0  0  0  0  0  0  0  0  0
    8.4703    0.0215    4.0256 C   0  0  0  0  0  0  0  0  0  0  0  0
    7.0767    0.0649    4.1415 C   0  0  0  0  0  0  0  0  0  0  0  0
    6.2776    0.0407    2.9984 C   0  0  0  0  0  0  0  0  0  0  0  0
    4.6842   -0.0245    0.6580 N   0  0  0  0  0  0  0  0  0  0  0  0
    1.6629   -0.0509   -1.4874 C   0  0  0  0  0  0  0  0  0  0  0  0
    0.2768   -0.0315   -1.3546 C   0  0  0  0  0  0  0  0  0  0  0  0
   -0.3194    0.0118   -0.0880 C   0  0  0  0  0  0  0  0  0  0  0  0
   -1.7515    0.0286    0.0161 N   0  0  0  0  0  0  0  0  0  0  0  0
   -2.4257    1.2617    0.0225 C   0  0  0  0  0  0  0  0  0  0  0  0
   -1.6950    2.4690   -0.0692 C   0  0  0  0  0  0  0  0  0  0  0  0
   -2.3403    3.7011   -0.0603 C   0  0  0  0  0  0  0  0  0  0  0  0
   -3.7334    3.7658    0.0378 C   0  0  0  0  0  0  0  0  0  0  0  0
   -4.4552    2.5784    0.1274 C   0  0  0  0  0  0  0  0  0  0  0  0
   -3.8326    1.3209    0.1237 C   0  0  0  0  0  0  0  0  0  0  0  0
   -4.7015    0.0623    0.2354 C   0  0  2  0  0  0  0  0  0  0  0  0
   -5.7904    0.0440   -0.8533 C   0  0  0  0  0  0  0  0  0  0  0  0
   -5.6293    0.0025   -2.2353 C   0  0  0  0  0  0  0  0  0  0  0  0
   -6.7676   -0.0067   -3.0521 C   0  0  0  0  0  0  0  0  0  0  0  0
   -8.0502    0.0256   -2.4874 C   0  0  0  0  0  0  0  0  0  0  0  0
   -8.2157    0.0669   -1.0993 C   0  0  0  0  0  0  0  0  0  0  0  0
   -7.0790    0.0757   -0.2826 C   0  0  0  0  0  0  0  0  0  0  0  0
   -6.9427    0.1137    1.1819 C   0  0  0  0  0  0  0  0  0  0  0  0
   -7.9095    0.1524    2.1932 C   0  0  0  0  0  0  0  0  0  0  0  0
   -7.4914    0.1823    3.5275 C   0  0  0  0  0  0  0  0  0  0  0  0
   -6.1266    0.1740    3.8470 C   0  0  0  0  0  0  0  0  0  0  0  0
   -5.1583    0.1357    2.8351 C   0  0  0  0  0  0  0  0  0  0  0  0
   -5.5709    0.1055    1.5061 C   0  0  0  0  0  0  0  0  0  0  0  0
   -3.8568   -1.2165    0.1913 C   0  0  0  0  0  0  0  0  0  0  0  0
   -4.5033   -2.4600    0.2616 C   0  0  0  0  0  0  0  0  0  0  0  0
   -3.8042   -3.6639    0.2361 C   0  0  0  0  0  0  0  0  0  0  0  0
   -2.4101   -3.6308    0.1367 C   0  0  0  0  0  0  0  0  0  0  0  0
   -1.7413   -2.4135    0.0629 C   0  0  0  0  0  0  0  0  0  0  0  0
   -2.4490   -1.1894    0.0883 C   0  0  0  0  0  0  0  0  0  0  0  0
    0.6078    0.0903    3.2336 H   0  0  0  0  0  0  0  0  0  0  0  0
   -0.8155   -0.7838    2.6112 H   0  0  0  0  0  0  0  0  0  0  0  0
   -0.7805    0.9865    2.5658 H   0  0  0  0  0  0  0  0  0  0  0  0
    2.5092    0.0353    1.8053 H   0  0  0  0  0  0  0  0  0  0  0  0
    4.5747   -0.1706   -4.1626 H   0  0  0  0  0  0  0  0  0  0  0  0
    5.6283   -0.2588   -6.4250 H   0  0  0  0  0  0  0  0  0  0  0  0
    8.1130   -0.3150   -6.6363 H   0  0  0  0  0  0  0  0  0  0  0  0
    9.5344   -0.2818   -4.5870 H   0  0  0  0  0  0  0  0  0  0  0  0
    8.4635   -0.1921   -2.3323 H   0  0  0  0  0  0  0  0  0  0  0  0
    8.7140   -0.1213    0.6221 H   0  0  0  0  0  0  0  0  0  0  0  0
   10.1502   -0.0799    2.6650 H   0  0  0  0  0  0  0  0  0  0  0  0
    9.0956    0.0402    4.9222 H   0  0  0  0  0  0  0  0  0  0  0  0
    6.6111    0.1178    5.1289 H   0  0  0  0  0  0  0  0  0  0  0  0
    5.1906    0.0733    3.0755 H   0  0  0  0  0  0  0  0  0  0  0  0
    2.1319   -0.0852   -2.4706 H   0  0  0  0  0  0  0  0  0  0  0  0
   -0.3659   -0.0503   -2.2373 H   0  0  0  0  0  0  0  0  0  0  0  0
   -0.6093    2.4347   -0.1516 H   0  0  0  0  0  0  0  0  0  0  0  0
   -1.7464    4.6159   -0.1329 H   0  0  0  0  0  0  0  0  0  0  0  0
   -4.2505    4.7277    0.0443 H   0  0  0  0  0  0  0  0  0  0  0  0
   -5.5441    2.6180    0.2044 H   0  0  0  0  0  0  0  0  0  0  0  0
   -4.6305   -0.0230   -2.6784 H   0  0  0  0  0  0  0  0  0  0  0  0
   -6.6551   -0.0390   -4.1388 H   0  0  0  0  0  0  0  0  0  0  0  0
   -8.9286    0.0181   -3.1380 H   0  0  0  0  0  0  0  0  0  0  0  0
   -9.2178    0.0914   -0.6636 H   0  0  0  0  0  0  0  0  0  0  0  0
   -8.9749    0.1588    1.9486 H   0  0  0  0  0  0  0  0  0  0  0  0
   -8.2349    0.2122    4.3281 H   0  0  0  0  0  0  0  0  0  0  0  0
   -5.8155    0.1976    4.8946 H   0  0  0  0  0  0  0  0  0  0  0  0
   -4.0949    0.1295    3.0876 H   0  0  0  0  0  0  0  0  0  0  0  0
   -5.5928   -2.4743    0.3397 H   0  0  0  0  0  0  0  0  0  0  0  0
   -4.3393   -4.6142    0.2934 H   0  0  0  0  0  0  0  0  0  0  0  0
   -1.8336   -4.5592    0.1143 H   0  0  0  0  0  0  0  0  0  0  0  0
   -0.6550   -2.4043   -0.0186 H   0  0  0  0  0  0  0  0  0  0  0  0
  1  2  1  0
  1 52  1  0
  1 53  1  0
  1 54  1  0
  2  3  2  0
  2 25  1  0
  3  4  1  0
  3 55  1  0
  4  5  1  0
  4 23  2  0
  5  6  2  0
  5 22  1  0
  6  7  1  0
  7  8  1  0
  7 14  2  0
  8  9  2  0
  8 13  1  0
  9 10  1  0
  9 56  1  0
 10 11  2  0
 10 57  1  0
 11 12  1  0
 11 58  1  0
 12 13  2  0
 12 59  1  0
 13 60  1  0
 14 15  1  0
 15 16  1  0
 15 22  2  0
 16 17  2  0
 16 21  1  0
 17 18  1  0
 17 61  1  0
 18 19  2  0
 18 62  1  0
 19 20  1  0
 19 63  1  0
 20 21  2  0
 20 64  1  0
 21 65  1  0
 23 24  1  0
 23 66  1  0
 24 25  2  0
 24 67  1  0
 25 26  1  0
 26 27  1  0
 26 51  1  0
 27 28  2  0
 27 32  1  0
 28 29  1  0
 28 68  1  0
 29 30  2  0
 29 69  1  0
 30 31  1  0
 30 70  1  0
 31 32  2  0
 31 71  1  0
 33 32  1  6
 33 34  1  0
 33 45  1  0
 33 46  1  0
 34 35  2  0
 34 39  1  0
 35 36  1  0
 35 72  1  0
 36 37  2  0
 36 73  1  0
 37 38  1  0
 37 74  1  0
 38 39  2  0
 38 75  1  0
 39 40  1  0
 40 41  2  0
 40 45  1  0
 41 42  1  0
 41 76  1  0
 42 43  2  0
 42 77  1  0
 43 44  1  0
 43 78  1  0
 44 45  2  0
 44 79  1  0
 46 47  1  0
 46 51  2  0
 47 48  2  0
 47 80  1  0
 48 49  1  0
 48 81  1  0
 49 50  2  0
 49 82  1  0
 50 51  1  0
 50 83  1  0
M  END

