
     RDKit          3D

154165  0  0  0  0  0  0  0  0999 V2000
   -1.6578    6.5542    1.1274 C   0  0  0  0  0  0  0  0  0  0  0  0
   -0.4679    6.6024    0.1679 C   0  0  0  0  0  0  0  0  0  0  0  0
    0.8792    6.3397    0.8487 C   0  0  0  0  0  0  0  0  0  0  0  0
    2.0762    6.3914   -0.1051 C   0  0  0  0  0  0  0  0  0  0  0  0
    3.4203    6.1223    0.5766 C   0  0  0  0  0  0  0  0  0  0  0  0
    4.6149    6.1886   -0.3932 C   0  0  0  0  0  0  0  0  0  0  0  0
    5.9495    5.9016    0.2331 C   0  0  0  0  0  0  0  0  0  0  0  0
    6.7560    4.7994    0.0670 C   0  0  0  0  0  0  0  0  0  0  0  0
    7.9494    4.8375    0.8423 C   0  0  0  0  0  0  0  0  0  0  0  0
    8.0667    5.9774    1.6142 C   0  0  0  0  0  0  0  0  0  0  0  0
    9.1280    6.3644    2.5248 C   0  0  0  0  0  0  0  0  0  0  0  0
    9.1099    7.3119    3.5333 C   0  0  0  0  0  0  0  0  0  0  0  0
   10.3418    7.4246    4.2296 C   0  0  0  0  0  0  0  0  0  0  0  0
   11.3231    6.5659    3.7710 C   0  0  0  0  0  0  0  0  0  0  0  0
   12.6889    6.3298    4.2727 C   0  0  0  0  0  0  0  0  0  0  0  0
   13.0983    5.0095    4.4993 C   0  0  0  0  0  0  0  0  0  0  0  0
   14.3481    4.6751    5.0379 C   0  0  0  0  0  0  0  0  0  0  0  0
   14.6468    3.2554    5.2942 C   0  0  0  0  0  0  0  0  0  0  0  0
   15.1605    2.6404    6.4208 C   0  0  0  0  0  0  0  0  0  0  0  0
   15.2338    1.2265    6.3193 C   0  0  0  0  0  0  0  0  0  0  0  0
   14.7802    0.7333    5.1083 C   0  0  0  0  0  0  0  0  0  0  0  0
   14.7063   -0.6409    4.6490 C   0  0  0  0  0  0  0  0  0  0  0  0
   14.0086   -1.1672    3.5785 C   0  0  0  0  0  0  0  0  0  0  0  0
   14.1759   -2.5728    3.4295 C   0  0  0  0  0  0  0  0  0  0  0  0
   14.9974   -3.1384    4.3772 C   0  0  0  0  0  0  0  0  0  0  0  0
   15.3662   -4.5835    4.5552 C   0  0  0  0  0  0  0  0  0  0  0  0
   14.6775   -5.2796    5.7443 C   0  0  0  0  0  0  0  0  0  0  0  0
   15.0628   -6.7547    5.8843 C   0  0  0  0  0  0  0  0  0  0  0  0
   14.3777   -7.4625    7.0568 C   0  0  0  0  0  0  0  0  0  0  0  0
   14.7614   -8.9388    7.2000 C   0  0  0  0  0  0  0  0  0  0  0  0
   14.0701   -9.6396    8.3704 C   0  0  0  0  0  0  0  0  0  0  0  0
   15.5889   -1.9125    5.4713 S   0  0  0  0  0  0  0  0  0  0  0  0
   14.2678    2.0508    4.0793 S   0  0  0  0  0  0  0  0  0  0  0  0
   15.2670    5.7211    5.3452 C   0  0  0  0  0  0  0  0  0  0  0  0
   16.5890    5.4617    5.8323 C   0  0  0  0  0  0  0  0  0  0  0  0
   17.4422    6.4719    6.1692 C   0  0  0  0  0  0  0  0  0  0  0  0
   17.0716    7.8489    6.0311 C   0  0  0  0  0  0  0  0  0  0  0  0
   17.9402    8.9142    6.4067 C   0  0  0  0  0  0  0  0  0  0  0  0
   19.2333    8.7207    7.0882 C   0  0  0  0  0  0  0  0  0  0  0  0
   20.4352    9.3351    6.7931 C   0  0  0  0  0  0  0  0  0  0  0  0
   21.4829    9.0187    7.6968 C   0  0  0  0  0  0  0  0  0  0  0  0
   21.0953    8.1644    8.7134 C   0  0  0  0  0  0  0  0  0  0  0  0
   21.8818    7.6282    9.8090 C   0  0  0  0  0  0  0  0  0  0  0  0
   21.6163    6.5493   10.6318 C   0  0  0  0  0  0  0  0  0  0  0  0
   22.6195    6.3272   11.6159 C   0  0  0  0  0  0  0  0  0  0  0  0
   23.6628    7.2240   11.5590 C   0  0  0  0  0  0  0  0  0  0  0  0
   24.8966    7.2748   12.4198 C   0  0  0  0  0  0  0  0  0  0  0  0
   26.0488    6.3447   11.9825 C   0  0  0  0  0  0  0  0  0  0  0  0
   26.7149    6.7162   10.6553 C   0  0  0  0  0  0  0  0  0  0  0  0
   27.8713    5.7870   10.2741 C   0  0  0  0  0  0  0  0  0  0  0  0
   28.5499    6.1525    8.9502 C   0  0  0  0  0  0  0  0  0  0  0  0
   29.7070    5.2240    8.5791 C   0  0  0  0  0  0  0  0  0  0  0  0
   23.3952    8.3754   10.2766 S   0  0  0  0  0  0  0  0  0  0  0  0
   19.4022    7.7587    8.5458 S   0  0  0  0  0  0  0  0  0  0  0  0
   17.5724   10.2283    6.0898 C   0  0  0  0  0  0  0  0  0  0  0  0
   16.3749   10.5547    5.4399 C   0  0  0  0  0  0  0  0  0  0  0  0
   16.1207   11.9642    5.0934 C   0  0  0  0  0  0  0  0  0  0  0  0
   15.6972   12.5219    3.9015 C   0  0  0  0  0  0  0  0  0  0  0  0
   15.6447   13.9403    3.9184 C   0  0  0  0  0  0  0  0  0  0  0  0
   16.0241   14.4947    5.1283 C   0  0  0  0  0  0  0  0  0  0  0  0
   16.0941   15.8922    5.5118 C   0  0  0  0  0  0  0  0  0  0  0  0
   16.7386   16.4728    6.5874 C   0  0  0  0  0  0  0  0  0  0  0  0
   16.5885   17.8876    6.6409 C   0  0  0  0  0  0  0  0  0  0  0  0
   15.8330   18.4058    5.6146 C   0  0  0  0  0  0  0  0  0  0  0  0
   15.4965   19.8416    5.3295 C   0  0  0  0  0  0  0  0  0  0  0  0
   16.2139   20.4370    4.1035 C   0  0  0  0  0  0  0  0  0  0  0  0
   15.8566   21.9035    3.8472 C   0  0  0  0  0  0  0  0  0  0  0  0
   16.5625   22.5048    2.6285 C   0  0  0  0  0  0  0  0  0  0  0  0
   16.2037   23.9703    2.3632 C   0  0  0  0  0  0  0  0  0  0  0  0
   16.9124   24.5625    1.1442 C   0  0  0  0  0  0  0  0  0  0  0  0
   15.2823   17.1235    4.5644 S   0  0  0  0  0  0  0  0  0  0  0  0
   16.4381   13.2301    6.2630 S   0  0  0  0  0  0  0  0  0  0  0  0
   15.4461    9.5125    5.1489 C   0  0  0  0  0  0  0  0  0  0  0  0
   14.1535    9.7713    4.5889 C   0  0  0  0  0  0  0  0  0  0  0  0
   13.2762    8.7642    4.3088 C   0  0  0  0  0  0  0  0  0  0  0  0
   13.5951    7.3914    4.5647 C   0  0  0  0  0  0  0  0  0  0  0  0
   14.8835    7.0857    5.1185 C   0  0  0  0  0  0  0  0  0  0  0  0
   15.8012    8.1518    5.4359 C   0  0  0  0  0  0  0  0  0  0  0  0
   10.7055    5.6153    2.4349 S   0  0  0  0  0  0  0  0  0  0  0  0
    6.6794    7.0183    1.3602 S   0  0  0  0  0  0  0  0  0  0  0  0
   -2.6083    6.7476    0.6049 H   0  0  0  0  0  0  0  0  0  0  0  0
   -1.5585    7.3075    1.9270 H   0  0  0  0  0  0  0  0  0  0  0  0
   -1.7408    5.5680    1.6145 H   0  0  0  0  0  0  0  0  0  0  0  0
   -0.4358    7.5884   -0.3308 H   0  0  0  0  0  0  0  0  0  0  0  0
   -0.6152    5.8635   -0.6408 H   0  0  0  0  0  0  0  0  0  0  0  0
    0.8500    5.3517    1.3450 H   0  0  0  0  0  0  0  0  0  0  0  0
    1.0274    7.0766    1.6602 H   0  0  0  0  0  0  0  0  0  0  0  0
    2.1082    7.3813   -0.5977 H   0  0  0  0  0  0  0  0  0  0  0  0
    1.9263    5.6579   -0.9193 H   0  0  0  0  0  0  0  0  0  0  0  0
    3.4041    5.1287    1.0581 H   0  0  0  0  0  0  0  0  0  0  0  0
    3.5740    6.8503    1.3929 H   0  0  0  0  0  0  0  0  0  0  0  0
    4.6311    7.1835   -0.8743 H   0  0  0  0  0  0  0  0  0  0  0  0
    4.4656    5.4597   -1.2077 H   0  0  0  0  0  0  0  0  0  0  0  0
    6.4932    3.9749   -0.5988 H   0  0  0  0  0  0  0  0  0  0  0  0
    8.6967    4.0421    0.8468 H   0  0  0  0  0  0  0  0  0  0  0  0
    8.2196    7.8919    3.7822 H   0  0  0  0  0  0  0  0  0  0  0  0
   10.4911    8.0890    5.0814 H   0  0  0  0  0  0  0  0  0  0  0  0
   12.3865    4.2055    4.3026 H   0  0  0  0  0  0  0  0  0  0  0  0
   15.4361    3.1926    7.3199 H   0  0  0  0  0  0  0  0  0  0  0  0
   15.5877    0.5804    7.1244 H   0  0  0  0  0  0  0  0  0  0  0  0
   13.3824   -0.5578    2.9244 H   0  0  0  0  0  0  0  0  0  0  0  0
   13.6987   -3.1585    2.6411 H   0  0  0  0  0  0  0  0  0  0  0  0
   16.4610   -4.6827    4.6660 H   0  0  0  0  0  0  0  0  0  0  0  0
   15.1056   -5.1121    3.6226 H   0  0  0  0  0  0  0  0  0  0  0  0
   13.5833   -5.1876    5.6277 H   0  0  0  0  0  0  0  0  0  0  0  0
   14.9278   -4.7405    6.6753 H   0  0  0  0  0  0  0  0  0  0  0  0
   16.1599   -6.8368    5.9982 H   0  0  0  0  0  0  0  0  0  0  0  0
   14.8201   -7.2862    4.9451 H   0  0  0  0  0  0  0  0  0  0  0  0
   13.2807   -7.3805    6.9415 H   0  0  0  0  0  0  0  0  0  0  0  0
   14.6192   -6.9305    7.9960 H   0  0  0  0  0  0  0  0  0  0  0  0
   15.8576   -9.0188    7.3172 H   0  0  0  0  0  0  0  0  0  0  0  0
   14.5224   -9.4683    6.2596 H   0  0  0  0  0  0  0  0  0  0  0  0
   14.3201   -9.1579    9.3307 H   0  0  0  0  0  0  0  0  0  0  0  0
   14.3679  -10.6979    8.4425 H   0  0  0  0  0  0  0  0  0  0  0  0
   12.9726   -9.6094    8.2642 H   0  0  0  0  0  0  0  0  0  0  0  0
   16.9248    4.4288    5.9149 H   0  0  0  0  0  0  0  0  0  0  0  0
   18.4426    6.2275    6.5254 H   0  0  0  0  0  0  0  0  0  0  0  0
   20.5628    9.9804    5.9226 H   0  0  0  0  0  0  0  0  0  0  0  0
   22.5042    9.3891    7.5938 H   0  0  0  0  0  0  0  0  0  0  0  0
   20.7245    5.9297   10.5229 H   0  0  0  0  0  0  0  0  0  0  0  0
   22.5742    5.5234   12.3536 H   0  0  0  0  0  0  0  0  0  0  0  0
   24.5985    7.0031   13.4462 H   0  0  0  0  0  0  0  0  0  0  0  0
   25.2697    8.3118   12.4756 H   0  0  0  0  0  0  0  0  0  0  0  0
   25.6707    5.3083   11.9290 H   0  0  0  0  0  0  0  0  0  0  0  0
   26.8104    6.3512   12.7832 H   0  0  0  0  0  0  0  0  0  0  0  0
   27.0873    7.7565   10.7140 H   0  0  0  0  0  0  0  0  0  0  0  0
   25.9624    6.7122    9.8474 H   0  0  0  0  0  0  0  0  0  0  0  0
   27.4994    4.7468   10.2171 H   0  0  0  0  0  0  0  0  0  0  0  0
   28.6260    5.7900   11.0831 H   0  0  0  0  0  0  0  0  0  0  0  0
   28.9161    7.1940    9.0060 H   0  0  0  0  0  0  0  0  0  0  0  0
   27.7957    6.1443    8.1423 H   0  0  0  0  0  0  0  0  0  0  0  0
   30.4963    5.2392    9.3495 H   0  0  0  0  0  0  0  0  0  0  0  0
   30.1703    5.5158    7.6230 H   0  0  0  0  0  0  0  0  0  0  0  0
   29.3669    4.1795    8.4783 H   0  0  0  0  0  0  0  0  0  0  0  0
   18.2573   11.0351    6.3567 H   0  0  0  0  0  0  0  0  0  0  0  0
   15.4726   11.9235    3.0178 H   0  0  0  0  0  0  0  0  0  0  0  0
   15.3599   14.5448    3.0556 H   0  0  0  0  0  0  0  0  0  0  0  0
   17.3163   15.8959    7.3118 H   0  0  0  0  0  0  0  0  0  0  0  0
   17.0310   18.5134    7.4185 H   0  0  0  0  0  0  0  0  0  0  0  0
   15.7550   20.4298    6.2263 H   0  0  0  0  0  0  0  0  0  0  0  0
   14.4052   19.9533    5.1959 H   0  0  0  0  0  0  0  0  0  0  0  0
   15.9668   19.8351    3.2109 H   0  0  0  0  0  0  0  0  0  0  0  0
   17.3047   20.3355    4.2424 H   0  0  0  0  0  0  0  0  0  0  0  0
   16.1021   22.5023    4.7442 H   0  0  0  0  0  0  0  0  0  0  0  0
   14.7620   21.9951    3.7178 H   0  0  0  0  0  0  0  0  0  0  0  0
   16.3199   21.9026    1.7329 H   0  0  0  0  0  0  0  0  0  0  0  0
   17.6571   22.4157    2.7597 H   0  0  0  0  0  0  0  0  0  0  0  0
   16.4461   24.5708    3.2591 H   0  0  0  0  0  0  0  0  0  0  0  0
   15.1096   24.0577    2.2326 H   0  0  0  0  0  0  0  0  0  0  0  0
   18.0087   24.5261    1.2604 H   0  0  0  0  0  0  0  0  0  0  0  0
   16.6303   25.6153    0.9832 H   0  0  0  0  0  0  0  0  0  0  0  0
   16.6612   24.0068    0.2251 H   0  0  0  0  0  0  0  0  0  0  0  0
   13.8633   10.8020    4.3901 H   0  0  0  0  0  0  0  0  0  0  0  0
   12.3109    9.0063    3.8669 H   0  0  0  0  0  0  0  0  0  0  0  0
  1  2  1  0
  1 81  1  0
  1 82  1  0
  1 83  1  0
  2  3  1  0
  2 84  1  0
  2 85  1  0
  3  4  1  0
  3 86  1  0
  3 87  1  0
  4  5  1  0
  4 88  1  0
  4 89  1  0
  5  6  1  0
  5 90  1  0
  5 91  1  0
  6  7  1  0
  6 92  1  0
  6 93  1  0
  7  8  2  0
  7 80  1  0
  8  9  1  0
  8 94  1  0
  9 10  2  0
  9 95  1  0
 10 11  1  0
 10 80  1  0
 11 12  2  0
 11 79  1  0
 12 13  1  0
 12 96  1  0
 13 14  2  0
 13 97  1  0
 14 15  1  0
 14 79  1  0
 15 16  2  0
 15 76  1  0
 16 17  1  0
 16 98  1  0
 17 18  1  0
 17 34  2  0
 18 19  2  0
 18 33  1  0
 19 20  1  0
 19 99  1  0
 20 21  2  0
 20100  1  0
 21 22  1  0
 21 33  1  0
 22 23  2  0
 22 32  1  0
 23 24  1  0
 23101  1  0
 24 25  2  0
 24102  1  0
 25 26  1  0
 25 32  1  0
 26 27  1  0
 26103  1  0
 26104  1  0
 27 28  1  0
 27105  1  0
 27106  1  0
 28 29  1  0
 28107  1  0
 28108  1  0
 29 30  1  0
 29109  1  0
 29110  1  0
 30 31  1  0
 30111  1  0
 30112  1  0
 31113  1  0
 31114  1  0
 31115  1  0
 34 35  1  0
 34 77  1  0
 35 36  2  0
 35116  1  0
 36 37  1  0
 36117  1  0
 37 38  2  0
 37 78  1  0
 38 39  1  0
 38 55  1  0
 39 40  2  0
 39 54  1  0
 40 41  1  0
 40118  1  0
 41 42  2  0
 41119  1  0
 42 43  1  0
 42 54  1  0
 43 44  2  0
 43 53  1  0
 44 45  1  0
 44120  1  0
 45 46  2  0
 45121  1  0
 46 47  1  0
 46 53  1  0
 47 48  1  0
 47122  1  0
 47123  1  0
 48 49  1  0
 48124  1  0
 48125  1  0
 49 50  1  0
 49126  1  0
 49127  1  0
 50 51  1  0
 50128  1  0
 50129  1  0
 51 52  1  0
 51130  1  0
 51131  1  0
 52132  1  0
 52133  1  0
 52134  1  0
 55 56  2  0
 55135  1  0
 56 57  1  0
 56 73  1  0
 57 58  2  0
 57 72  1  0
 58 59  1  0
 58136  1  0
 59 60  2  0
 59137  1  0
 60 61  1  0
 60 72  1  0
 61 62  2  0
 61 71  1  0
 62 63  1  0
 62138  1  0
 63 64  2  0
 63139  1  0
 64 65  1  0
 64 71  1  0
 65 66  1  0
 65140  1  0
 65141  1  0
 66 67  1  0
 66142  1  0
 66143  1  0
 67 68  1  0
 67144  1  0
 67145  1  0
 68 69  1  0
 68146  1  0
 68147  1  0
 69 70  1  0
 69148  1  0
 69149  1  0
 70150  1  0
 70151  1  0
 70152  1  0
 73 74  2  0
 73 78  1  0
 74 75  1  0
 74153  1  0
 75 76  2  0
 75154  1  0
 76 77  1  0
 77 78  2  0
M  END

