
     RDKit          3D

 72 77  0  0  0  0  0  0  0  0999 V2000
    1.5043   -1.7740   -0.9525 N   0  0  0  0  0  0  0  0  0  0  0  0
    2.6559   -1.6296   -0.9053 C   0  0  0  0  0  0  0  0  0  0  0  0
    4.0772   -1.4080   -0.8927 C   0  0  0  0  0  0  0  0  0  0  0  0
    4.5958   -0.8680   -2.1200 C   0  0  0  0  0  0  0  0  0  0  0  0
    4.9647   -0.4466   -3.1376 N   0  0  0  0  0  0  0  0  0  0  0  0
    4.8622   -1.6906    0.2047 C   0  0  0  0  0  0  0  0  0  0  0  0
    4.2915   -2.3940    1.3822 C   0  0  0  0  0  0  0  0  0  0  0  0
    4.4801   -1.8602    2.6720 C   0  0  0  0  0  0  0  0  0  0  0  0
    3.9006   -2.4953    3.7705 C   0  0  0  0  0  0  0  0  0  0  0  0
    3.1755   -3.6771    3.6128 C   0  0  0  0  0  0  0  0  0  0  0  0
    3.0034   -4.2414    2.3346 C   0  0  0  0  0  0  0  0  0  0  0  0
    2.2876   -5.4485    2.1676 N   0  0  0  0  0  0  0  0  0  0  0  0
    1.0816   -5.6576    2.8947 C   0  0  0  0  0  0  0  0  0  0  0  0
    0.1113   -4.6428    2.9684 C   0  0  0  0  0  0  0  0  0  0  0  0
   -1.0675   -4.8483    3.6878 C   0  0  0  0  0  0  0  0  0  0  0  0
   -1.3052   -6.0694    4.3271 C   0  0  0  0  0  0  0  0  0  0  0  0
   -0.3467   -7.0848    4.2452 C   0  0  0  0  0  0  0  0  0  0  0  0
    0.8423   -6.8820    3.5424 C   0  0  0  0  0  0  0  0  0  0  0  0
    2.7429   -6.4338    1.2504 C   0  0  0  0  0  0  0  0  0  0  0  0
    4.1108   -6.7518    1.1628 C   0  0  0  0  0  0  0  0  0  0  0  0
    4.5558   -7.7131    0.2539 C   0  0  0  0  0  0  0  0  0  0  0  0
    3.6474   -8.3890   -0.5670 C   0  0  0  0  0  0  0  0  0  0  0  0
    2.2854   -8.0849   -0.4739 C   0  0  0  0  0  0  0  0  0  0  0  0
    1.8334   -7.1112    0.4184 C   0  0  0  0  0  0  0  0  0  0  0  0
    3.5555   -3.5781    1.2248 C   0  0  0  0  0  0  0  0  0  0  0  0
    6.2946   -1.3125    0.2631 C   0  0  0  0  0  0  0  0  0  0  0  0
    6.7510   -0.0535   -0.1709 C   0  0  0  0  0  0  0  0  0  0  0  0
    8.1094    0.2541   -0.0808 C   0  0  0  0  0  0  0  0  0  0  0  0
    9.0258   -0.6766    0.4073 C   0  0  0  0  0  0  0  0  0  0  0  0
    8.5887   -1.9403    0.8525 C   0  0  0  0  0  0  0  0  0  0  0  0
    9.5063   -2.8953    1.3470 N   0  0  0  0  0  0  0  0  0  0  0  0
    9.3255   -4.2774    1.0607 C   0  0  0  0  0  0  0  0  0  0  0  0
    8.9905   -4.7030   -0.2376 C   0  0  0  0  0  0  0  0  0  0  0  0
    8.8102   -6.0601   -0.5102 C   0  0  0  0  0  0  0  0  0  0  0  0
    8.9780   -7.0160    0.4974 C   0  0  0  0  0  0  0  0  0  0  0  0
    9.3205   -6.5974    1.7876 C   0  0  0  0  0  0  0  0  0  0  0  0
    9.4861   -5.2409    2.0725 C   0  0  0  0  0  0  0  0  0  0  0  0
   10.6172   -2.4835    2.1345 C   0  0  0  0  0  0  0  0  0  0  0  0
   10.4564   -1.5385    3.1637 C   0  0  0  0  0  0  0  0  0  0  0  0
   11.5521   -1.1369    3.9299 C   0  0  0  0  0  0  0  0  0  0  0  0
   12.8192   -1.6815    3.6981 C   0  0  0  0  0  0  0  0  0  0  0  0
   12.9811   -2.6293    2.6824 C   0  0  0  0  0  0  0  0  0  0  0  0
   11.8944   -3.0231    1.8998 C   0  0  0  0  0  0  0  0  0  0  0  0
    7.2161   -2.2324    0.7962 C   0  0  0  0  0  0  0  0  0  0  0  0
    5.0568   -0.9429    2.8036 H   0  0  0  0  0  0  0  0  0  0  0  0
    4.0294   -2.0741    4.7706 H   0  0  0  0  0  0  0  0  0  0  0  0
    2.7464   -4.1784    4.4821 H   0  0  0  0  0  0  0  0  0  0  0  0
    0.2836   -3.6973    2.4500 H   0  0  0  0  0  0  0  0  0  0  0  0
   -1.8136   -4.0508    3.7338 H   0  0  0  0  0  0  0  0  0  0  0  0
   -2.2322   -6.2298    4.8827 H   0  0  0  0  0  0  0  0  0  0  0  0
   -0.5196   -8.0425    4.7433 H   0  0  0  0  0  0  0  0  0  0  0  0
    1.5935   -7.6727    3.4890 H   0  0  0  0  0  0  0  0  0  0  0  0
    4.8260   -6.2427    1.8119 H   0  0  0  0  0  0  0  0  0  0  0  0
    5.6236   -7.9403    0.1990 H   0  0  0  0  0  0  0  0  0  0  0  0
    3.9972   -9.1456   -1.2733 H   0  0  0  0  0  0  0  0  0  0  0  0
    1.5644   -8.5996   -1.1143 H   0  0  0  0  0  0  0  0  0  0  0  0
    0.7711   -6.8671    0.4725 H   0  0  0  0  0  0  0  0  0  0  0  0
    3.4171   -4.0056    0.2316 H   0  0  0  0  0  0  0  0  0  0  0  0
    6.0494    0.6873   -0.5550 H   0  0  0  0  0  0  0  0  0  0  0  0
    8.4637    1.2330   -0.4124 H   0  0  0  0  0  0  0  0  0  0  0  0
   10.0878   -0.4291    0.4476 H   0  0  0  0  0  0  0  0  0  0  0  0
    8.8734   -3.9645   -1.0332 H   0  0  0  0  0  0  0  0  0  0  0  0
    8.5512   -6.3726   -1.5251 H   0  0  0  0  0  0  0  0  0  0  0  0
    8.8488   -8.0785    0.2778 H   0  0  0  0  0  0  0  0  0  0  0  0
    9.4506   -7.3328    2.5858 H   0  0  0  0  0  0  0  0  0  0  0  0
    9.7421   -4.9194    3.0838 H   0  0  0  0  0  0  0  0  0  0  0  0
    9.4667   -1.1220    3.3615 H   0  0  0  0  0  0  0  0  0  0  0  0
   11.4094   -0.4015    4.7260 H   0  0  0  0  0  0  0  0  0  0  0  0
   13.6731   -1.3704    4.3044 H   0  0  0  0  0  0  0  0  0  0  0  0
   13.9668   -3.0591    2.4862 H   0  0  0  0  0  0  0  0  0  0  0  0
   12.0289   -3.7539    1.1001 H   0  0  0  0  0  0  0  0  0  0  0  0
    6.8623   -3.1995    1.1539 H   0  0  0  0  0  0  0  0  0  0  0  0
  1  2  3  0
  2  3  1  0
  3  4  1  0
  3  6  2  0
  4  5  3  0
  6  7  1  0
  6 26  1  0
  7  8  2  0
  7 25  1  0
  8  9  1  0
  8 45  1  0
  9 10  2  0
  9 46  1  0
 10 11  1  0
 10 47  1  0
 11 12  1  0
 11 25  2  0
 12 13  1  0
 12 19  1  0
 13 14  2  0
 13 18  1  0
 14 15  1  0
 14 48  1  0
 15 16  2  0
 15 49  1  0
 16 17  1  0
 16 50  1  0
 17 18  2  0
 17 51  1  0
 18 52  1  0
 19 20  2  0
 19 24  1  0
 20 21  1  0
 20 53  1  0
 21 22  2  0
 21 54  1  0
 22 23  1  0
 22 55  1  0
 23 24  2  0
 23 56  1  0
 24 57  1  0
 25 58  1  0
 26 27  2  0
 26 44  1  0
 27 28  1  0
 27 59  1  0
 28 29  2  0
 28 60  1  0
 29 30  1  0
 29 61  1  0
 30 31  1  0
 30 44  2  0
 31 32  1  0
 31 38  1  0
 32 33  2  0
 32 37  1  0
 33 34  1  0
 33 62  1  0
 34 35  2  0
 34 63  1  0
 35 36  1  0
 35 64  1  0
 36 37  2  0
 36 65  1  0
 37 66  1  0
 38 39  2  0
 38 43  1  0
 39 40  1  0
 39 67  1  0
 40 41  2  0
 40 68  1  0
 41 42  1  0
 41 69  1  0
 42 43  2  0
 42 70  1  0
 43 71  1  0
 44 72  1  0
M  END

