
     RDKit          3D

 26 28  0  0  0  0  0  0  0  0999 V2000
    1.1550   -0.0695   -0.0805 C   0  0  0  0  0  0  0  0  0  0  0  0
    2.6359   -0.1907   -0.0801 C   0  0  0  0  0  0  0  0  0  0  0  0
    3.4814   -1.2609   -0.0802 C   0  0  0  0  0  0  0  0  0  0  0  0
    4.8153   -0.7179   -0.0797 C   0  0  0  0  0  0  0  0  0  0  0  0
    4.6646    0.6812   -0.0793 C   0  0  0  0  0  0  0  0  0  0  0  0
    3.3405    0.9923   -0.0795 O   0  0  0  0  0  0  0  0  0  0  0  0
    5.7199    1.6092   -0.0787 C   0  0  0  0  0  0  0  0  0  0  0  0
    5.4777    3.0975   -0.0782 C   0  0  0  0  0  0  0  0  0  0  0  0
    6.9934    1.0441   -0.0786 C   0  0  0  0  0  0  0  0  0  0  0  0
    7.2123   -0.3585   -0.0790 C   0  0  0  0  0  0  0  0  0  0  0  0
    8.5229   -0.9603   -0.0787 C   0  0  0  0  0  0  0  0  0  0  0  0
    8.6742   -2.3086   -0.0790 C   0  0  0  0  0  0  0  0  0  0  0  0
    7.5262   -3.2129   -0.0796 C   0  0  0  0  0  0  0  0  0  0  0  0
    7.5567   -4.4145   -0.0798 O   0  0  0  0  0  0  0  0  0  0  0  0
    6.2769   -2.5889   -0.0800 O   0  0  0  0  0  0  0  0  0  0  0  0
    6.1159   -1.2443   -0.0795 C   0  0  0  0  0  0  0  0  0  0  0  0
    0.6927   -1.0657   -0.0805 H   0  0  0  0  0  0  0  0  0  0  0  0
    0.8024    0.4810   -0.9688 H   0  0  0  0  0  0  0  0  0  0  0  0
    0.8019    0.4812    0.8074 H   0  0  0  0  0  0  0  0  0  0  0  0
    3.1986   -2.3104   -0.0806 H   0  0  0  0  0  0  0  0  0  0  0  0
    4.4034    3.3258   -0.0797 H   0  0  0  0  0  0  0  0  0  0  0  0
    5.9269    3.5747   -0.9645 H   0  0  0  0  0  0  0  0  0  0  0  0
    5.9243    3.5737    0.8099 H   0  0  0  0  0  0  0  0  0  0  0  0
    7.8688    1.7001   -0.0782 H   0  0  0  0  0  0  0  0  0  0  0  0
    9.4010   -0.3076   -0.0783 H   0  0  0  0  0  0  0  0  0  0  0  0
    9.6526   -2.7904   -0.0787 H   0  0  0  0  0  0  0  0  0  0  0  0
  1  2  1  0
  1 17  1  0
  1 18  1  0
  1 19  1  0
  2  3  2  0
  2  6  1  0
  3  4  1  0
  3 20  1  0
  4  5  2  0
  4 16  1  0
  5  6  1  0
  5  7  1  0
  7  8  1  0
  7  9  2  0
  8 21  1  0
  8 22  1  0
  8 23  1  0
  9 10  1  0
  9 24  1  0
 10 11  1  0
 10 16  2  0
 11 12  2  0
 11 25  1  0
 12 13  1  0
 12 26  1  0
 13 14  2  0
 13 15  1  0
 15 16  1  0
M  END

