
     RDKit          3D

138147  0  0  0  0  0  0  0  0999 V2000
   12.4725   -0.3156   -0.5163 C   0  0  0  0  0  0  0  0  0  0  0  0
   11.2414   -0.6114   -1.3741 C   0  0  0  0  0  0  0  0  0  0  0  0
   10.0130   -1.0323   -0.5598 C   0  0  0  0  0  0  0  0  0  0  0  0
    8.7770   -1.3069   -1.4232 C   0  0  0  0  0  0  0  0  0  0  0  0
    7.5685   -1.8859   -0.6637 C   0  0  1  0  0  0  0  0  0  0  0  0
    7.0667   -0.9970    0.4973 C   0  0  0  0  0  0  0  0  0  0  0  0
    6.6271    0.4237    0.1277 C   0  0  0  0  0  0  0  0  0  0  0  0
    6.3907   -2.2224   -1.6028 C   0  0  0  0  0  0  0  0  0  0  0  0
    6.7116   -3.1852   -2.6708 N   0  0  0  0  0  0  0  0  0  0  0  0
    6.7611   -4.5404   -2.3187 C   0  0  0  0  0  0  0  0  0  0  0  0
    6.5661   -4.8955   -1.1701 O   0  0  0  0  0  0  0  0  0  0  0  0
    7.0651   -5.5101   -3.4070 C   0  0  0  0  0  0  0  0  0  0  0  0
    7.3144   -6.8267   -3.0775 C   0  0  0  0  0  0  0  0  0  0  0  0
    7.6277   -7.7601   -4.0860 C   0  0  0  0  0  0  0  0  0  0  0  0
    8.1657   -8.9612   -3.7735 O   0  0  0  0  0  0  0  0  0  0  0  0
    8.1565   -9.4953   -2.4956 C   0  0  0  0  0  0  0  0  0  0  0  0
    6.9726   -9.7510   -1.8045 C   0  0  0  0  0  0  0  0  0  0  0  0
    7.0278  -10.3552   -0.5445 C   0  0  0  0  0  0  0  0  0  0  0  0
    8.2457  -10.7271    0.0478 C   0  0  0  0  0  0  0  0  0  0  0  0
    8.3353  -11.3961    1.4332 C   0  0  1  0  0  0  0  0  0  0  0  0
    6.9493  -11.5969    2.0723 C   0  0  0  0  0  0  0  0  0  0  0  0
    9.0078  -12.7815    1.2913 C   0  0  0  0  0  0  0  0  0  0  0  0
    9.1793  -10.5083    2.3771 C   0  0  0  0  0  0  0  0  0  0  0  0
    9.4189  -10.4651   -0.6851 C   0  0  0  0  0  0  0  0  0  0  0  0
    9.3848   -9.8568   -1.9393 C   0  0  0  0  0  0  0  0  0  0  0  0
    7.5081   -7.4306   -5.4619 C   0  0  0  0  0  0  0  0  0  0  0  0
    7.6587   -8.4086   -6.5426 C   0  0  0  0  0  0  0  0  0  0  0  0
    7.4014   -9.7959   -6.4321 C   0  0  0  0  0  0  0  0  0  0  0  0
    6.3718  -10.4847   -5.1997 Cl  0  0  0  0  0  0  0  0  0  0  0  0
    7.8215  -10.7108   -7.4096 C   0  0  0  0  0  0  0  0  0  0  0  0
    8.3326  -10.2624   -8.6126 C   0  0  0  0  0  0  0  0  0  0  0  0
    8.3109   -8.8752   -8.8922 C   0  0  0  0  0  0  0  0  0  0  0  0
    8.5162   -8.4447  -10.2246 C   0  0  0  0  0  0  0  0  0  0  0  0
    8.1775   -7.1504  -10.5700 C   0  0  0  0  0  0  0  0  0  0  0  0
    7.7525   -6.2425   -9.5882 C   0  0  0  0  0  0  0  0  0  0  0  0
    6.9273   -4.8368  -10.2183 Cl  0  0  0  0  0  0  0  0  0  0  0  0
    7.8427   -6.5361   -8.2066 C   0  0  0  0  0  0  0  0  0  0  0  0
    7.6912   -5.5620   -7.1233 C   0  0  0  0  0  0  0  0  0  0  0  0
    7.9795   -4.1797   -7.2699 C   0  0  0  0  0  0  0  0  0  0  0  0
    8.6731   -3.7976   -8.3665 O   0  0  0  0  0  0  0  0  0  0  0  0
    8.8720   -2.4721   -8.7180 C   0  0  0  0  0  0  0  0  0  0  0  0
   10.1845   -2.0233   -8.8380 C   0  0  0  0  0  0  0  0  0  0  0  0
   10.4337   -0.7136   -9.2613 C   0  0  0  0  0  0  0  0  0  0  0  0
    9.3904    0.1735   -9.5693 C   0  0  0  0  0  0  0  0  0  0  0  0
    9.6309    1.6234  -10.0336 C   0  0  1  0  0  0  0  0  0  0  0  0
   11.1292    1.9689  -10.1047 C   0  0  0  0  0  0  0  0  0  0  0  0
    9.0222    1.8189  -11.4416 C   0  0  0  0  0  0  0  0  0  0  0  0
    8.9563    2.5989   -9.0412 C   0  0  0  0  0  0  0  0  0  0  0  0
    8.0758   -0.3161   -9.4406 C   0  0  0  0  0  0  0  0  0  0  0  0
    7.8074   -1.6203   -9.0276 C   0  0  0  0  0  0  0  0  0  0  0  0
    7.6584   -3.2523   -6.2589 C   0  0  0  0  0  0  0  0  0  0  0  0
    7.2346   -3.6962   -5.0229 C   0  0  0  0  0  0  0  0  0  0  0  0
    7.2049   -5.0825   -4.7470 C   0  0  0  0  0  0  0  0  0  0  0  0
    7.4258   -6.0329   -5.7908 C   0  0  0  0  0  0  0  0  0  0  0  0
    6.9224   -2.6927   -3.9678 C   0  0  0  0  0  0  0  0  0  0  0  0
    6.8587   -1.5017   -4.2118 O   0  0  0  0  0  0  0  0  0  0  0  0
    7.9882   -7.9327   -7.8665 C   0  0  0  0  0  0  0  0  0  0  0  0
    8.9560   -9.3885  -11.2843 C   0  0  0  0  0  0  0  0  0  0  0  0
    9.1981   -9.0288  -12.4203 O   0  0  0  0  0  0  0  0  0  0  0  0
    9.0795  -10.7390  -10.9069 N   0  0  0  0  0  0  0  0  0  0  0  0
    9.5294  -11.6792  -11.9159 C   0  0  0  0  0  0  0  0  0  0  0  0
   10.9124  -11.9092  -12.0598 C   0  0  0  0  0  0  0  0  0  0  0  0
   11.9540  -11.2025  -11.1985 C   0  0  1  0  0  0  0  0  0  0  0  0
   12.7991  -12.2018  -10.3897 C   0  0  0  0  0  0  0  0  0  0  0  0
   12.8293  -10.2583  -12.0423 C   0  0  0  0  0  0  0  0  0  0  0  0
   11.3246  -12.8175  -13.0451 C   0  0  0  0  0  0  0  0  0  0  0  0
   10.3972  -13.4722  -13.8531 C   0  0  0  0  0  0  0  0  0  0  0  0
    9.0348  -13.2288  -13.6891 C   0  0  0  0  0  0  0  0  0  0  0  0
    8.5709  -12.3285  -12.7198 C   0  0  0  0  0  0  0  0  0  0  0  0
    7.0731  -12.0897  -12.5633 C   0  0  1  0  0  0  0  0  0  0  0  0
    6.4491  -11.5225  -13.8501 C   0  0  0  0  0  0  0  0  0  0  0  0
    6.3501  -13.3615  -12.0838 C   0  0  0  0  0  0  0  0  0  0  0  0
    8.7609  -11.2517   -9.6351 C   0  0  0  0  0  0  0  0  0  0  0  0
    8.8352  -12.4428   -9.4024 O   0  0  0  0  0  0  0  0  0  0  0  0
   13.3354   -0.0175   -1.1333 H   0  0  0  0  0  0  0  0  0  0  0  0
   12.7735   -1.1990    0.0717 H   0  0  0  0  0  0  0  0  0  0  0  0
   12.2766    0.5020    0.1979 H   0  0  0  0  0  0  0  0  0  0  0  0
   11.4821   -1.4054   -2.1045 H   0  0  0  0  0  0  0  0  0  0  0  0
   10.9877    0.2800   -1.9765 H   0  0  0  0  0  0  0  0  0  0  0  0
    9.7928   -0.2441    0.1819 H   0  0  0  0  0  0  0  0  0  0  0  0
   10.2585   -1.9369    0.0282 H   0  0  0  0  0  0  0  0  0  0  0  0
    9.0655   -2.0218   -2.2134 H   0  0  0  0  0  0  0  0  0  0  0  0
    8.4822   -0.3870   -1.9572 H   0  0  0  0  0  0  0  0  0  0  0  0
    7.8861   -2.8383   -0.2053 H   0  0  0  0  0  0  0  0  0  0  0  0
    7.8596   -0.9395    1.2613 H   0  0  0  0  0  0  0  0  0  0  0  0
    6.2273   -1.5187    0.9906 H   0  0  0  0  0  0  0  0  0  0  0  0
    7.4512    1.0123   -0.3061 H   0  0  0  0  0  0  0  0  0  0  0  0
    6.2752    0.9644    1.0209 H   0  0  0  0  0  0  0  0  0  0  0  0
    5.8007    0.4302   -0.6010 H   0  0  0  0  0  0  0  0  0  0  0  0
    6.0245   -1.3210   -2.1072 H   0  0  0  0  0  0  0  0  0  0  0  0
    5.5776   -2.6621   -1.0090 H   0  0  0  0  0  0  0  0  0  0  0  0
    7.3206   -7.1122   -2.0264 H   0  0  0  0  0  0  0  0  0  0  0  0
    6.0115   -9.4841   -2.2473 H   0  0  0  0  0  0  0  0  0  0  0  0
    6.0858  -10.5394   -0.0283 H   0  0  0  0  0  0  0  0  0  0  0  0
    6.3043  -12.2474    1.4610 H   0  0  0  0  0  0  0  0  0  0  0  0
    6.4248  -10.6410    2.2275 H   0  0  0  0  0  0  0  0  0  0  0  0
    7.0596  -12.0753    3.0581 H   0  0  0  0  0  0  0  0  0  0  0  0
    8.4247  -13.4377    0.6258 H   0  0  0  0  0  0  0  0  0  0  0  0
    9.0840  -13.2743    2.2744 H   0  0  0  0  0  0  0  0  0  0  0  0
   10.0254  -12.7056    0.8784 H   0  0  0  0  0  0  0  0  0  0  0  0
    8.7190   -9.5155    2.5026 H   0  0  0  0  0  0  0  0  0  0  0  0
   10.2010  -10.3579    1.9961 H   0  0  0  0  0  0  0  0  0  0  0  0
    9.2609  -10.9746    3.3727 H   0  0  0  0  0  0  0  0  0  0  0  0
   10.3922  -10.7378   -0.2711 H   0  0  0  0  0  0  0  0  0  0  0  0
   10.3015   -9.6609   -2.4990 H   0  0  0  0  0  0  0  0  0  0  0  0
    7.6986  -11.7822   -7.2476 H   0  0  0  0  0  0  0  0  0  0  0  0
    8.1928   -6.8566  -11.6202 H   0  0  0  0  0  0  0  0  0  0  0  0
   11.0043   -2.7050   -8.6035 H   0  0  0  0  0  0  0  0  0  0  0  0
   11.4722   -0.3939   -9.3452 H   0  0  0  0  0  0  0  0  0  0  0  0
   11.6663    1.3280  -10.8214 H   0  0  0  0  0  0  0  0  0  0  0  0
   11.6209    1.8742   -9.1237 H   0  0  0  0  0  0  0  0  0  0  0  0
   11.2554    3.0113  -10.4365 H   0  0  0  0  0  0  0  0  0  0  0  0
    9.4893    1.1396  -12.1723 H   0  0  0  0  0  0  0  0  0  0  0  0
    9.1806    2.8533  -11.7884 H   0  0  0  0  0  0  0  0  0  0  0  0
    7.9382    1.6277  -11.4518 H   0  0  0  0  0  0  0  0  0  0  0  0
    9.3742    2.4851   -8.0283 H   0  0  0  0  0  0  0  0  0  0  0  0
    7.8702    2.4340   -8.9748 H   0  0  0  0  0  0  0  0  0  0  0  0
    9.1153    3.6421   -9.3603 H   0  0  0  0  0  0  0  0  0  0  0  0
    7.2282    0.3322   -9.6736 H   0  0  0  0  0  0  0  0  0  0  0  0
    6.7792   -1.9774   -8.9478 H   0  0  0  0  0  0  0  0  0  0  0  0
    7.7913   -2.1826   -6.4156 H   0  0  0  0  0  0  0  0  0  0  0  0
   11.4190  -10.5757  -10.4700 H   0  0  0  0  0  0  0  0  0  0  0  0
   13.3982  -12.8532  -11.0465 H   0  0  0  0  0  0  0  0  0  0  0  0
   12.1595  -12.8466   -9.7675 H   0  0  0  0  0  0  0  0  0  0  0  0
   13.4991  -11.6675   -9.7263 H   0  0  0  0  0  0  0  0  0  0  0  0
   13.4293  -10.8161  -12.7801 H   0  0  0  0  0  0  0  0  0  0  0  0
   13.5288   -9.6993  -11.3991 H   0  0  0  0  0  0  0  0  0  0  0  0
   12.2085   -9.5332  -12.5905 H   0  0  0  0  0  0  0  0  0  0  0  0
   12.3905  -13.0147  -13.1822 H   0  0  0  0  0  0  0  0  0  0  0  0
   10.7382  -14.1770  -14.6160 H   0  0  0  0  0  0  0  0  0  0  0  0
    8.3162  -13.7484  -14.3276 H   0  0  0  0  0  0  0  0  0  0  0  0
    6.9336  -11.3290  -11.7811 H   0  0  0  0  0  0  0  0  0  0  0  0
    6.5118  -12.2406  -14.6840 H   0  0  0  0  0  0  0  0  0  0  0  0
    6.9599  -10.5981  -14.1607 H   0  0  0  0  0  0  0  0  0  0  0  0
    5.3827  -11.2915  -13.6927 H   0  0  0  0  0  0  0  0  0  0  0  0
    6.4153  -14.1691  -12.8314 H   0  0  0  0  0  0  0  0  0  0  0  0
    5.2810  -13.1569  -11.9085 H   0  0  0  0  0  0  0  0  0  0  0  0
    6.7900  -13.7322  -11.1455 H   0  0  0  0  0  0  0  0  0  0  0  0
  1  2  1  0
  1 75  1  0
  1 76  1  0
  1 77  1  0
  2  3  1  0
  2 78  1  0
  2 79  1  0
  3  4  1  0
  3 80  1  0
  3 81  1  0
  4  5  1  0
  4 82  1  0
  4 83  1  0
  5  6  1  0
  5  8  1  0
  5 84  1  1
  6  7  1  0
  6 85  1  0
  6 86  1  0
  7 87  1  0
  7 88  1  0
  7 89  1  0
  8  9  1  0
  8 90  1  0
  8 91  1  0
  9 10  1  0
  9 55  1  0
 10 11  2  0
 10 12  1  0
 12 13  1  0
 12 53  2  0
 13 14  2  0
 13 92  1  0
 14 15  1  0
 14 26  1  0
 15 16  1  0
 16 17  2  0
 16 25  1  0
 17 18  1  0
 17 93  1  0
 18 19  2  0
 18 94  1  0
 19 20  1  0
 19 24  1  0
 20 21  1  1
 20 22  1  0
 20 23  1  0
 21 95  1  0
 21 96  1  0
 21 97  1  0
 22 98  1  0
 22 99  1  0
 22100  1  0
 23101  1  0
 23102  1  0
 23103  1  0
 24 25  2  0
 24104  1  0
 25105  1  0
 26 27  1  0
 26 54  2  0
 27 28  2  0
 27 57  1  0
 28 29  1  0
 28 30  1  0
 30 31  2  0
 30106  1  0
 31 32  1  0
 31 73  1  0
 32 33  1  0
 32 57  2  0
 33 34  2  0
 33 58  1  0
 34 35  1  0
 34107  1  0
 35 36  1  0
 35 37  2  0
 37 38  1  0
 37 57  1  0
 38 39  2  0
 38 54  1  0
 39 40  1  0
 39 51  1  0
 40 41  1  0
 41 42  2  0
 41 50  1  0
 42 43  1  0
 42108  1  0
 43 44  2  0
 43109  1  0
 44 45  1  0
 44 49  1  0
 45 46  1  6
 45 47  1  0
 45 48  1  0
 46110  1  0
 46111  1  0
 46112  1  0
 47113  1  0
 47114  1  0
 47115  1  0
 48116  1  0
 48117  1  0
 48118  1  0
 49 50  2  0
 49119  1  0
 50120  1  0
 51 52  2  0
 51121  1  0
 52 53  1  0
 52 55  1  0
 53 54  1  0
 55 56  2  0
 58 59  2  0
 58 60  1  0
 60 61  1  0
 60 73  1  0
 61 62  2  0
 61 69  1  0
 62 63  1  0
 62 66  1  0
 63 64  1  0
 63 65  1  0
 63122  1  1
 64123  1  0
 64124  1  0
 64125  1  0
 65126  1  0
 65127  1  0
 65128  1  0
 66 67  2  0
 66129  1  0
 67 68  1  0
 67130  1  0
 68 69  2  0
 68131  1  0
 69 70  1  0
 70 71  1  0
 70 72  1  0
 70132  1  1
 71133  1  0
 71134  1  0
 71135  1  0
 72136  1  0
 72137  1  0
 72138  1  0
 73 74  2  0
M  END

