
     RDKit          3D

 81 90  0  0  0  0  0  0  0  0999 V2000
    8.3592   -5.1586   -0.4259 C   0  0  0  0  0  0  0  0  0  0  0  0
    8.9170   -3.8842   -0.5671 C   0  0  0  0  0  0  0  0  0  0  0  0
    8.1201   -2.7450   -0.4435 C   0  0  0  0  0  0  0  0  0  0  0  0
    6.7393   -2.8473   -0.1825 C   0  0  0  0  0  0  0  0  0  0  0  0
    5.9212   -1.6089   -0.0690 C   0  0  0  0  0  0  0  0  0  0  0  0
    4.5329   -1.6297   -0.0868 C   0  0  0  0  0  0  0  0  0  0  0  0
    3.8227   -0.4024    0.0177 C   0  0  0  0  0  0  0  0  0  0  0  0
    2.3804   -0.3128    0.0152 C   0  0  0  0  0  0  0  0  0  0  0  0
    1.5153   -1.4505   -0.0793 C   0  0  0  0  0  0  0  0  0  0  0  0
    0.1356   -1.3252   -0.0761 C   0  0  0  0  0  0  0  0  0  0  0  0
   -0.4564   -0.0514    0.0211 C   0  0  0  0  0  0  0  0  0  0  0  0
   -1.9093    0.0836    0.0287 N   0  0  0  0  0  0  0  0  0  0  0  0
   -2.5806    0.2385   -1.1758 C   0  0  0  0  0  0  0  0  0  0  0  0
   -1.8344    0.2611   -2.3887 C   0  0  0  0  0  0  0  0  0  0  0  0
   -2.4779    0.4129   -3.6019 C   0  0  0  0  0  0  0  0  0  0  0  0
   -3.8765    0.5460   -3.6459 C   0  0  0  0  0  0  0  0  0  0  0  0
   -4.6146    0.5255   -2.4623 C   0  0  0  0  0  0  0  0  0  0  0  0
   -3.9974    0.3746   -1.2184 C   0  0  0  0  0  0  0  0  0  0  0  0
   -4.8448    0.3612    0.0456 C   0  0  1  0  0  0  0  0  0  0  0  0
   -5.7116    1.6357    0.1412 C   0  0  0  0  0  0  0  0  0  0  0  0
   -5.2912    2.9589    0.2362 C   0  0  0  0  0  0  0  0  0  0  0  0
   -6.2591    3.9691    0.3145 C   0  0  0  0  0  0  0  0  0  0  0  0
   -7.6238    3.6509    0.2985 C   0  0  0  0  0  0  0  0  0  0  0  0
   -8.0460    2.3210    0.2035 C   0  0  0  0  0  0  0  0  0  0  0  0
   -7.0824    1.3094    0.1240 C   0  0  0  0  0  0  0  0  0  0  0  0
   -7.2217   -0.1505    0.0154 C   0  0  0  0  0  0  0  0  0  0  0  0
   -8.3593   -0.9633   -0.0412 C   0  0  0  0  0  0  0  0  0  0  0  0
   -8.1961   -2.3481   -0.1489 C   0  0  0  0  0  0  0  0  0  0  0  0
   -6.9160   -2.9161   -0.1999 C   0  0  0  0  0  0  0  0  0  0  0  0
   -5.7744   -2.1055   -0.1427 C   0  0  0  0  0  0  0  0  0  0  0  0
   -5.9371   -0.7277   -0.0348 C   0  0  0  0  0  0  0  0  0  0  0  0
   -3.9999    0.1884    1.3001 C   0  0  0  0  0  0  0  0  0  0  0  0
   -4.6200    0.1554    2.5513 C   0  0  0  0  0  0  0  0  0  0  0  0
   -3.8851    0.0004    3.7268 C   0  0  0  0  0  0  0  0  0  0  0  0
   -2.4866   -0.1266    3.6671 C   0  0  0  0  0  0  0  0  0  0  0  0
   -1.8401   -0.0987    2.4463 C   0  0  0  0  0  0  0  0  0  0  0  0
   -2.5833    0.0585    1.2414 C   0  0  0  0  0  0  0  0  0  0  0  0
    0.3610    1.0948    0.1165 C   0  0  0  0  0  0  0  0  0  0  0  0
    1.7372    0.9641    0.1139 C   0  0  0  0  0  0  0  0  0  0  0  0
    4.5392    0.7630    0.1240 N   0  0  0  0  0  0  0  0  0  0  0  0
    5.8628    0.6855    0.1234 C   0  0  0  0  0  0  0  0  0  0  0  0
    6.6201    1.9752    0.2384 C   0  0  0  0  0  0  0  0  0  0  0  0
    8.0216    1.9748    0.3355 C   0  0  0  0  0  0  0  0  0  0  0  0
    8.7298    3.1742    0.4431 C   0  0  0  0  0  0  0  0  0  0  0  0
    8.0500    4.3961    0.4539 C   0  0  0  0  0  0  0  0  0  0  0  0
    6.6539    4.4070    0.3581 C   0  0  0  0  0  0  0  0  0  0  0  0
    5.9464    3.2081    0.2530 C   0  0  0  0  0  0  0  0  0  0  0  0
    6.6006   -0.4332    0.0332 N   0  0  0  0  0  0  0  0  0  0  0  0
    6.1941   -4.1384   -0.0344 C   0  0  0  0  0  0  0  0  0  0  0  0
    6.9909   -5.2774   -0.1560 C   0  0  0  0  0  0  0  0  0  0  0  0
    8.9835   -6.0512   -0.5195 H   0  0  0  0  0  0  0  0  0  0  0  0
    9.9853   -3.7759   -0.7756 H   0  0  0  0  0  0  0  0  0  0  0  0
    8.5450   -1.7468   -0.5506 H   0  0  0  0  0  0  0  0  0  0  0  0
    3.9995   -2.5717   -0.2006 H   0  0  0  0  0  0  0  0  0  0  0  0
    1.9382   -2.4530   -0.1541 H   0  0  0  0  0  0  0  0  0  0  0  0
   -0.4920   -2.2177   -0.1488 H   0  0  0  0  0  0  0  0  0  0  0  0
   -0.7534    0.1582   -2.3407 H   0  0  0  0  0  0  0  0  0  0  0  0
   -1.8934    0.4293   -4.5236 H   0  0  0  0  0  0  0  0  0  0  0  0
   -4.3883    0.6661   -4.6030 H   0  0  0  0  0  0  0  0  0  0  0  0
   -5.7002    0.6298   -2.5020 H   0  0  0  0  0  0  0  0  0  0  0  0
   -4.2284    3.2136    0.2500 H   0  0  0  0  0  0  0  0  0  0  0  0
   -5.9461    5.0131    0.3888 H   0  0  0  0  0  0  0  0  0  0  0  0
   -8.3656    4.4507    0.3605 H   0  0  0  0  0  0  0  0  0  0  0  0
   -9.1116    2.0799    0.1911 H   0  0  0  0  0  0  0  0  0  0  0  0
   -9.3603   -0.5269   -0.0030 H   0  0  0  0  0  0  0  0  0  0  0  0
   -9.0759   -2.9944   -0.1945 H   0  0  0  0  0  0  0  0  0  0  0  0
   -6.8062   -3.9997   -0.2846 H   0  0  0  0  0  0  0  0  0  0  0  0
   -4.7788   -2.5546   -0.1833 H   0  0  0  0  0  0  0  0  0  0  0  0
   -5.7056    0.2541    2.6035 H   0  0  0  0  0  0  0  0  0  0  0  0
   -4.3994   -0.0212    4.6898 H   0  0  0  0  0  0  0  0  0  0  0  0
   -1.9044   -0.2469    4.5825 H   0  0  0  0  0  0  0  0  0  0  0  0
   -0.7591   -0.1937    2.3866 H   0  0  0  0  0  0  0  0  0  0  0  0
   -0.0939    2.0864    0.1934 H   0  0  0  0  0  0  0  0  0  0  0  0
    2.3756    1.8437    0.1894 H   0  0  0  0  0  0  0  0  0  0  0  0
    8.5372    1.0142    0.3286 H   0  0  0  0  0  0  0  0  0  0  0  0
    9.8208    3.1548    0.5195 H   0  0  0  0  0  0  0  0  0  0  0  0
    8.6044    5.3351    0.5371 H   0  0  0  0  0  0  0  0  0  0  0  0
    6.1133    5.3580    0.3656 H   0  0  0  0  0  0  0  0  0  0  0  0
    4.8586    3.2013    0.1786 H   0  0  0  0  0  0  0  0  0  0  0  0
    5.1341   -4.2605    0.1975 H   0  0  0  0  0  0  0  0  0  0  0  0
    6.5413   -6.2666   -0.0314 H   0  0  0  0  0  0  0  0  0  0  0  0
  1  2  2  0
  1 50  1  0
  1 51  1  0
  2  3  1  0
  2 52  1  0
  3  4  2  0
  3 53  1  0
  4  5  1  0
  4 49  1  0
  5  6  2  0
  5 48  1  0
  6  7  1  0
  6 54  1  0
  7  8  1  0
  7 40  2  0
  8  9  2  0
  8 39  1  0
  9 10  1  0
  9 55  1  0
 10 11  2  0
 10 56  1  0
 11 12  1  0
 11 38  1  0
 12 13  1  0
 12 37  1  0
 13 14  2  0
 13 18  1  0
 14 15  1  0
 14 57  1  0
 15 16  2  0
 15 58  1  0
 16 17  1  0
 16 59  1  0
 17 18  2  0
 17 60  1  0
 19 18  1  6
 19 20  1  0
 19 31  1  0
 19 32  1  0
 20 21  2  0
 20 25  1  0
 21 22  1  0
 21 61  1  0
 22 23  2  0
 22 62  1  0
 23 24  1  0
 23 63  1  0
 24 25  2  0
 24 64  1  0
 25 26  1  0
 26 27  2  0
 26 31  1  0
 27 28  1  0
 27 65  1  0
 28 29  2  0
 28 66  1  0
 29 30  1  0
 29 67  1  0
 30 31  2  0
 30 68  1  0
 32 33  1  0
 32 37  2  0
 33 34  2  0
 33 69  1  0
 34 35  1  0
 34 70  1  0
 35 36  2  0
 35 71  1  0
 36 37  1  0
 36 72  1  0
 38 39  2  0
 38 73  1  0
 39 74  1  0
 40 41  1  0
 41 42  1  0
 41 48  2  0
 42 43  2  0
 42 47  1  0
 43 44  1  0
 43 75  1  0
 44 45  2  0
 44 76  1  0
 45 46  1  0
 45 77  1  0
 46 47  2  0
 46 78  1  0
 47 79  1  0
 49 50  2  0
 49 80  1  0
 50 81  1  0
M  END

