
     RDKit          3D

 94106  0  0  0  0  0  0  0  0999 V2000
    1.1847   -0.3876   -0.2523 N   0  0  0  0  0  0  0  0  0  0  0  0
    2.3368   -0.1880   -0.2682 C   0  0  0  0  0  0  0  0  0  0  0  0
    3.7339   -0.0068   -0.2987 C   0  0  0  0  0  0  0  0  0  0  0  0
    4.3519    1.3004   -0.1767 C   0  0  0  0  0  0  0  0  0  0  0  0
    3.4987    2.4078    0.0673 N   0  0  0  0  0  0  0  0  0  0  0  0
    2.7717    2.6152    1.2462 C   0  0  0  0  0  0  0  0  0  0  0  0
    2.7591    1.8655    2.4278 C   0  0  0  0  0  0  0  0  0  0  0  0
    1.9461    2.3059    3.4728 C   0  0  0  0  0  0  0  0  0  0  0  0
    1.1611    3.4670    3.3497 C   0  0  0  0  0  0  0  0  0  0  0  0
    1.1728    4.2078    2.1684 C   0  0  0  0  0  0  0  0  0  0  0  0
    1.9785    3.7836    1.1027 C   0  0  0  0  0  0  0  0  0  0  0  0
    2.2168    4.2894   -0.2351 C   0  0  0  0  0  0  0  0  0  0  0  0
    1.7137    5.3783   -0.9606 C   0  0  0  0  0  0  0  0  0  0  0  0
    2.1334    5.5706   -2.2764 C   0  0  0  0  0  0  0  0  0  0  0  0
    3.0455    4.6805   -2.8725 C   0  0  0  0  0  0  0  0  0  0  0  0
    3.5626    3.5912   -2.1701 C   0  0  0  0  0  0  0  0  0  0  0  0
    3.1493    3.4103   -0.8471 C   0  0  0  0  0  0  0  0  0  0  0  0
    5.7269    1.4572   -0.2954 C   0  0  0  0  0  0  0  0  0  0  0  0
    6.3381    2.7336   -0.1879 N   0  0  0  0  0  0  0  0  0  0  0  0
    6.5171    3.4749    0.9875 C   0  0  0  0  0  0  0  0  0  0  0  0
    6.1176    3.1813    2.2945 C   0  0  0  0  0  0  0  0  0  0  0  0
    6.4401    4.0966    3.2974 C   0  0  0  0  0  0  0  0  0  0  0  0
    7.1481    5.2781    3.0107 C   0  0  0  0  0  0  0  0  0  0  0  0
    7.5549    5.5611    1.7074 C   0  0  0  0  0  0  0  0  0  0  0  0
    7.2454    4.6555    0.6828 C   0  0  0  0  0  0  0  0  0  0  0  0
    7.5347    4.6156   -0.7375 C   0  0  0  0  0  0  0  0  0  0  0  0
    8.2113    5.4772   -1.6120 C   0  0  0  0  0  0  0  0  0  0  0  0
    8.3287    5.1273   -2.9567 C   0  0  0  0  0  0  0  0  0  0  0  0
    7.7778    3.9233   -3.4326 C   0  0  0  0  0  0  0  0  0  0  0  0
    7.0967    3.0510   -2.5827 C   0  0  0  0  0  0  0  0  0  0  0  0
    6.9761    3.4093   -1.2354 C   0  0  0  0  0  0  0  0  0  0  0  0
    6.5939    0.3166   -0.5278 C   0  0  0  0  0  0  0  0  0  0  0  0
    7.9974    0.4325   -0.5765 C   0  0  0  0  0  0  0  0  0  0  0  0
    9.1651    0.4758   -0.6216 N   0  0  0  0  0  0  0  0  0  0  0  0
    5.9672   -0.9722   -0.6327 C   0  0  0  0  0  0  0  0  0  0  0  0
    6.7763   -2.1465   -0.8321 N   0  0  0  0  0  0  0  0  0  0  0  0
    7.3444   -2.9116    0.1778 C   0  0  0  0  0  0  0  0  0  0  0  0
    7.2835   -2.7225    1.5658 C   0  0  0  0  0  0  0  0  0  0  0  0
    7.9512   -3.6457    2.3748 C   0  0  0  0  0  0  0  0  0  0  0  0
    8.6588   -4.7206    1.8158 C   0  0  0  0  0  0  0  0  0  0  0  0
    8.7326   -4.8929    0.4238 C   0  0  0  0  0  0  0  0  0  0  0  0
    8.0801   -3.9822   -0.4046 C   0  0  0  0  0  0  0  0  0  0  0  0
    7.9762   -3.8142   -1.8471 C   0  0  0  0  0  0  0  0  0  0  0  0
    8.4879   -4.5034   -2.9446 C   0  0  0  0  0  0  0  0  0  0  0  0
    8.2176   -4.0228   -4.2363 C   0  0  0  0  0  0  0  0  0  0  0  0
    7.4528   -2.8626   -4.4303 C   0  0  0  0  0  0  0  0  0  0  0  0
    6.9235   -2.1572   -3.3464 C   0  0  0  0  0  0  0  0  0  0  0  0
    7.1833   -2.6509   -2.0601 C   0  0  0  0  0  0  0  0  0  0  0  0
    4.6064   -1.1258   -0.5244 C   0  0  0  0  0  0  0  0  0  0  0  0
    4.0520   -2.4474   -0.6586 N   0  0  0  0  0  0  0  0  0  0  0  0
    3.6212   -3.0241   -1.8461 C   0  0  0  0  0  0  0  0  0  0  0  0
    3.6082   -2.4781   -3.1375 C   0  0  0  0  0  0  0  0  0  0  0  0
    3.1158   -3.2768   -4.1732 C   0  0  0  0  0  0  0  0  0  0  0  0
    2.6492   -4.5769   -3.9274 C   0  0  0  0  0  0  0  0  0  0  0  0
    2.6468   -5.1109   -2.6283 C   0  0  0  0  0  0  0  0  0  0  0  0
    3.1271   -4.3319   -1.5775 C   0  0  0  0  0  0  0  0  0  0  0  0
    3.2338   -4.5237   -0.1382 C   0  0  0  0  0  0  0  0  0  0  0  0
    2.9005   -5.5601    0.7316 C   0  0  0  0  0  0  0  0  0  0  0  0
    3.1058   -5.3840    2.1098 C   0  0  0  0  0  0  0  0  0  0  0  0
    3.6293   -4.1843    2.6152 C   0  0  0  0  0  0  0  0  0  0  0  0
    3.9772   -3.1328    1.7633 C   0  0  0  0  0  0  0  0  0  0  0  0
    3.7854   -3.3210    0.3872 C   0  0  0  0  0  0  0  0  0  0  0  0
    3.3555    0.9571    2.5270 H   0  0  0  0  0  0  0  0  0  0  0  0
    1.9161    1.7329    4.4032 H   0  0  0  0  0  0  0  0  0  0  0  0
    0.5345    3.7860    4.1860 H   0  0  0  0  0  0  0  0  0  0  0  0
    0.5595    5.1073    2.0721 H   0  0  0  0  0  0  0  0  0  0  0  0
    0.9970    6.0636   -0.5010 H   0  0  0  0  0  0  0  0  0  0  0  0
    1.7494    6.4160   -2.8522 H   0  0  0  0  0  0  0  0  0  0  0  0
    3.3611    4.8445   -3.9059 H   0  0  0  0  0  0  0  0  0  0  0  0
    4.2702    2.9090   -2.6405 H   0  0  0  0  0  0  0  0  0  0  0  0
    5.5665    2.2706    2.5271 H   0  0  0  0  0  0  0  0  0  0  0  0
    6.1305    3.8897    4.3249 H   0  0  0  0  0  0  0  0  0  0  0  0
    7.3825    5.9763    3.8178 H   0  0  0  0  0  0  0  0  0  0  0  0
    8.1138    6.4741    1.4868 H   0  0  0  0  0  0  0  0  0  0  0  0
    8.6435    6.4106   -1.2426 H   0  0  0  0  0  0  0  0  0  0  0  0
    8.8564    5.7893   -3.6473 H   0  0  0  0  0  0  0  0  0  0  0  0
    7.8887    3.6616   -4.4881 H   0  0  0  0  0  0  0  0  0  0  0  0
    6.6834    2.1129   -2.9571 H   0  0  0  0  0  0  0  0  0  0  0  0
    6.7686   -1.8626    1.9925 H   0  0  0  0  0  0  0  0  0  0  0  0
    7.9312   -3.5192    3.4593 H   0  0  0  0  0  0  0  0  0  0  0  0
    9.1735   -5.4255    2.4725 H   0  0  0  0  0  0  0  0  0  0  0  0
    9.3033   -5.7235    0.0019 H   0  0  0  0  0  0  0  0  0  0  0  0
    9.0982   -5.3990   -2.8074 H   0  0  0  0  0  0  0  0  0  0  0  0
    8.6204   -4.5528   -5.1022 H   0  0  0  0  0  0  0  0  0  0  0  0
    7.2754   -2.4972   -5.4440 H   0  0  0  0  0  0  0  0  0  0  0  0
    6.3606   -1.2358   -3.4907 H   0  0  0  0  0  0  0  0  0  0  0  0
    3.9326   -1.4538   -3.3176 H   0  0  0  0  0  0  0  0  0  0  0  0
    3.0834   -2.8754   -5.1884 H   0  0  0  0  0  0  0  0  0  0  0  0
    2.2680   -5.1774   -4.7562 H   0  0  0  0  0  0  0  0  0  0  0  0
    2.2635   -6.1178   -2.4481 H   0  0  0  0  0  0  0  0  0  0  0  0
    2.4772   -6.4934    0.3532 H   0  0  0  0  0  0  0  0  0  0  0  0
    2.8411   -6.1883    2.7997 H   0  0  0  0  0  0  0  0  0  0  0  0
    3.7584   -4.0644    3.6930 H   0  0  0  0  0  0  0  0  0  0  0  0
    4.3502   -2.1866    2.1530 H   0  0  0  0  0  0  0  0  0  0  0  0
  1  2  3  0
  2  3  1  0
  3  4  2  0
  3 49  1  0
  4  5  1  0
  4 18  1  0
  5  6  1  0
  5 17  1  0
  6  7  2  0
  6 11  1  0
  7  8  1  0
  7 63  1  0
  8  9  2  0
  8 64  1  0
  9 10  1  0
  9 65  1  0
 10 11  2  0
 10 66  1  0
 11 12  1  0
 12 13  1  0
 12 17  2  0
 13 14  2  0
 13 67  1  0
 14 15  1  0
 14 68  1  0
 15 16  2  0
 15 69  1  0
 16 17  1  0
 16 70  1  0
 18 19  1  0
 18 32  2  0
 19 20  1  0
 19 31  1  0
 20 21  2  0
 20 25  1  0
 21 22  1  0
 21 71  1  0
 22 23  2  0
 22 72  1  0
 23 24  1  0
 23 73  1  0
 24 25  2  0
 24 74  1  0
 25 26  1  0
 26 27  1  0
 26 31  2  0
 27 28  2  0
 27 75  1  0
 28 29  1  0
 28 76  1  0
 29 30  2  0
 29 77  1  0
 30 31  1  0
 30 78  1  0
 32 33  1  0
 32 35  1  0
 33 34  3  0
 35 36  1  0
 35 49  2  0
 36 37  1  0
 36 48  1  0
 37 38  2  0
 37 42  1  0
 38 39  1  0
 38 79  1  0
 39 40  2  0
 39 80  1  0
 40 41  1  0
 40 81  1  0
 41 42  2  0
 41 82  1  0
 42 43  1  0
 43 44  1  0
 43 48  2  0
 44 45  2  0
 44 83  1  0
 45 46  1  0
 45 84  1  0
 46 47  2  0
 46 85  1  0
 47 48  1  0
 47 86  1  0
 49 50  1  0
 50 51  1  0
 50 62  1  0
 51 52  2  0
 51 56  1  0
 52 53  1  0
 52 87  1  0
 53 54  2  0
 53 88  1  0
 54 55  1  0
 54 89  1  0
 55 56  2  0
 55 90  1  0
 56 57  1  0
 57 58  1  0
 57 62  2  0
 58 59  2  0
 58 91  1  0
 59 60  1  0
 59 92  1  0
 60 61  2  0
 60 93  1  0
 61 62  1  0
 61 94  1  0
M  END

