
     RDKit          3D

 30 32  0  0  0  0  0  0  0  0999 V2000
    1.0303    0.3042    0.7904 Cl  0  0  0  0  0  0  0  0  0  0  0  0
    2.7257    0.1846    0.3890 C   0  0  0  0  0  0  0  0  0  0  0  0
    3.5066    1.3411    0.3188 C   0  0  0  0  0  0  0  0  0  0  0  0
    4.8591    1.2309   -0.0008 C   0  0  0  0  0  0  0  0  0  0  0  0
    5.4615   -0.0182   -0.2559 C   0  0  0  0  0  0  0  0  0  0  0  0
    6.8860   -0.0603   -0.5854 C   0  0  0  0  0  0  0  0  0  0  0  0
    7.6385   -1.1480   -0.8632 C   0  0  0  0  0  0  0  0  0  0  0  0
    9.0671   -1.0831   -1.1821 C   0  0  0  0  0  0  0  0  0  0  0  0
    9.7846   -2.2966   -1.4640 C   0  0  0  0  0  0  0  0  0  0  0  0
   11.0598   -2.3236   -1.7550 N   0  0  0  0  0  0  0  0  0  0  0  0
   11.7157   -1.1298   -1.7861 C   0  0  0  0  0  0  0  0  0  0  0  0
   13.1008   -1.0871   -2.0943 C   0  0  0  0  0  0  0  0  0  0  0  0
   13.7651    0.1219   -2.1255 C   0  0  0  0  0  0  0  0  0  0  0  0
   13.0734    1.3321   -1.8507 C   0  0  0  0  0  0  0  0  0  0  0  0
   11.7282    1.3221   -1.5483 C   0  0  0  0  0  0  0  0  0  0  0  0
   11.0142    0.0914   -1.5077 C   0  0  0  0  0  0  0  0  0  0  0  0
    9.6931    0.0836   -1.2095 N   0  0  0  0  0  0  0  0  0  0  0  0
    4.6436   -1.1663   -0.1766 C   0  0  0  0  0  0  0  0  0  0  0  0
    3.2923   -1.0725    0.1412 C   0  0  0  0  0  0  0  0  0  0  0  0
    3.0549    2.3150    0.5140 H   0  0  0  0  0  0  0  0  0  0  0  0
    5.4694    2.1362   -0.0552 H   0  0  0  0  0  0  0  0  0  0  0  0
    7.4025    0.9049   -0.6096 H   0  0  0  0  0  0  0  0  0  0  0  0
    7.1994   -2.1502   -0.8607 H   0  0  0  0  0  0  0  0  0  0  0  0
    9.2495   -3.2550   -1.4368 H   0  0  0  0  0  0  0  0  0  0  0  0
   13.6057   -2.0330   -2.3008 H   0  0  0  0  0  0  0  0  0  0  0  0
   14.8313    0.1544   -2.3628 H   0  0  0  0  0  0  0  0  0  0  0  0
   13.6181    2.2792   -1.8807 H   0  0  0  0  0  0  0  0  0  0  0  0
   11.1755    2.2390   -1.3337 H   0  0  0  0  0  0  0  0  0  0  0  0
    5.0681   -2.1544   -0.3661 H   0  0  0  0  0  0  0  0  0  0  0  0
    2.6696   -1.9668    0.2000 H   0  0  0  0  0  0  0  0  0  0  0  0
  1  2  1  0
  2  3  2  0
  2 19  1  0
  3  4  1  0
  3 20  1  0
  4  5  2  0
  4 21  1  0
  5  6  1  0
  5 18  1  0
  6  7  2  0
  6 22  1  0
  7  8  1  0
  7 23  1  0
  8  9  2  0
  8 17  1  0
  9 10  1  0
  9 24  1  0
 10 11  2  0
 11 12  1  0
 11 16  1  0
 12 13  2  0
 12 25  1  0
 13 14  1  0
 13 26  1  0
 14 15  2  0
 14 27  1  0
 15 16  1  0
 15 28  1  0
 16 17  2  0
 18 19  2  0
 18 29  1  0
 19 30  1  0
M  END

