
     RDKit          3D

 71 79  0  0  0  0  0  0  0  0999 V2000
    1.3363   -0.4672   -0.5656 F   0  0  0  0  0  0  0  0  0  0  0  0
    2.9186   -0.2494   -0.1382 Si  0  0  1  0  0  4  0  0  0  0  0  0
    3.6152    0.7645   -1.6024 C   0  0  0  0  0  0  0  0  0  0  0  0
    4.4652    1.8971   -1.4269 C   0  0  0  0  0  0  0  0  0  0  0  0
    5.0463    2.2652   -0.1663 C   0  0  0  0  0  0  0  0  0  0  0  0
    5.8642    3.3604   -0.0303 C   0  0  0  0  0  0  0  0  0  0  0  0
    6.1678    4.1896   -1.1469 C   0  0  0  0  0  0  0  0  0  0  0  0
    5.6572    3.8735   -2.3788 C   0  0  0  0  0  0  0  0  0  0  0  0
    4.8186    2.7269   -2.5626 C   0  0  0  0  0  0  0  0  0  0  0  0
    4.3480    2.3859   -3.8341 C   0  0  0  0  0  0  0  0  0  0  0  0
    3.5729    1.2426   -4.0507 C   0  0  0  0  0  0  0  0  0  0  0  0
    3.1538    0.8888   -5.3741 C   0  0  0  0  0  0  0  0  0  0  0  0
    2.4213   -0.2456   -5.6052 C   0  0  0  0  0  0  0  0  0  0  0  0
    2.0700   -1.0872   -4.5117 C   0  0  0  0  0  0  0  0  0  0  0  0
    2.4400   -0.7722   -3.2273 C   0  0  0  0  0  0  0  0  0  0  0  0
    3.2024    0.4084   -2.9235 C   0  0  0  0  0  0  0  0  0  0  0  0
    2.7713    0.7029    1.5141 C   0  0  0  0  0  0  0  0  0  0  0  0
    3.5333    0.3746    2.6748 C   0  0  0  0  0  0  0  0  0  0  0  0
    4.6129   -0.5726    2.6732 C   0  0  0  0  0  0  0  0  0  0  0  0
    5.3327   -0.8623    3.8068 C   0  0  0  0  0  0  0  0  0  0  0  0
    5.0297   -0.2319    5.0467 C   0  0  0  0  0  0  0  0  0  0  0  0
    4.0203    0.6934    5.1027 C   0  0  0  0  0  0  0  0  0  0  0  0
    3.2613    1.0352    3.9370 C   0  0  0  0  0  0  0  0  0  0  0  0
    2.2664    2.0156    3.9979 C   0  0  0  0  0  0  0  0  0  0  0  0
    1.5453    2.4051    2.8651 C   0  0  0  0  0  0  0  0  0  0  0  0
    0.5672    3.4483    2.9496 C   0  0  0  0  0  0  0  0  0  0  0  0
   -0.1245    3.8616    1.8417 C   0  0  0  0  0  0  0  0  0  0  0  0
    0.1331    3.2445    0.5847 C   0  0  0  0  0  0  0  0  0  0  0  0
    1.0525    2.2312    0.4677 C   0  0  0  0  0  0  0  0  0  0  0  0
    1.8015    1.7497    1.5968 C   0  0  0  0  0  0  0  0  0  0  0  0
    3.5553   -2.0484   -0.0122 C   0  0  0  0  0  0  0  0  0  0  0  0
    4.7964   -2.4765   -0.5700 C   0  0  0  0  0  0  0  0  0  0  0  0
    5.7937   -1.5731   -1.0714 C   0  0  0  0  0  0  0  0  0  0  0  0
    6.9817   -2.0165   -1.5994 C   0  0  0  0  0  0  0  0  0  0  0  0
    7.2728   -3.4078   -1.6784 C   0  0  0  0  0  0  0  0  0  0  0  0
    6.3653   -4.3144   -1.1959 C   0  0  0  0  0  0  0  0  0  0  0  0
    5.1259   -3.8881   -0.6182 C   0  0  0  0  0  0  0  0  0  0  0  0
    4.2316   -4.8197   -0.0825 C   0  0  0  0  0  0  0  0  0  0  0  0
    3.0427   -4.4266    0.5401 C   0  0  0  0  0  0  0  0  0  0  0  0
    2.1753   -5.4002    1.1330 C   0  0  0  0  0  0  0  0  0  0  0  0
    1.0259   -5.0251    1.7774 C   0  0  0  0  0  0  0  0  0  0  0  0
    0.6879   -3.6444    1.8609 C   0  0  0  0  0  0  0  0  0  0  0  0
    1.4857   -2.6840    1.2893 C   0  0  0  0  0  0  0  0  0  0  0  0
    2.6968   -3.0191    0.5908 C   0  0  0  0  0  0  0  0  0  0  0  0
    4.8457    1.6580    0.7132 H   0  0  0  0  0  0  0  0  0  0  0  0
    6.2874    3.5967    0.9493 H   0  0  0  0  0  0  0  0  0  0  0  0
    6.8118    5.0631   -1.0190 H   0  0  0  0  0  0  0  0  0  0  0  0
    5.8908    4.4867   -3.2535 H   0  0  0  0  0  0  0  0  0  0  0  0
    4.6117    3.0190   -4.6865 H   0  0  0  0  0  0  0  0  0  0  0  0
    3.4429    1.5451   -6.1995 H   0  0  0  0  0  0  0  0  0  0  0  0
    2.1111   -0.5105   -6.6190 H   0  0  0  0  0  0  0  0  0  0  0  0
    1.4968   -1.9992   -4.6963 H   0  0  0  0  0  0  0  0  0  0  0  0
    2.1400   -1.4433   -2.4258 H   0  0  0  0  0  0  0  0  0  0  0  0
    4.8804   -1.0764    1.7473 H   0  0  0  0  0  0  0  0  0  0  0  0
    6.1493   -1.5868    3.7544 H   0  0  0  0  0  0  0  0  0  0  0  0
    5.6065   -0.4807    5.9409 H   0  0  0  0  0  0  0  0  0  0  0  0
    3.7800    1.2005    6.0413 H   0  0  0  0  0  0  0  0  0  0  0  0
    2.0605    2.5059    4.9540 H   0  0  0  0  0  0  0  0  0  0  0  0
    0.3923    3.9141    3.9234 H   0  0  0  0  0  0  0  0  0  0  0  0
   -0.8651    4.6618    1.9148 H   0  0  0  0  0  0  0  0  0  0  0  0
   -0.4085    3.5824   -0.3024 H   0  0  0  0  0  0  0  0  0  0  0  0
    1.2072    1.7877   -0.5132 H   0  0  0  0  0  0  0  0  0  0  0  0
    5.6159   -0.5013   -1.0256 H   0  0  0  0  0  0  0  0  0  0  0  0
    7.7131   -1.2899   -1.9623 H   0  0  0  0  0  0  0  0  0  0  0  0
    8.2184   -3.7438   -2.1109 H   0  0  0  0  0  0  0  0  0  0  0  0
    6.5761   -5.3869   -1.2307 H   0  0  0  0  0  0  0  0  0  0  0  0
    4.4802   -5.8841   -0.1305 H   0  0  0  0  0  0  0  0  0  0  0  0
    2.4603   -6.4538    1.0670 H   0  0  0  0  0  0  0  0  0  0  0  0
    0.3735   -5.7746    2.2321 H   0  0  0  0  0  0  0  0  0  0  0  0
   -0.2200   -3.3431    2.3894 H   0  0  0  0  0  0  0  0  0  0  0  0
    1.1821   -1.6431    1.3770 H   0  0  0  0  0  0  0  0  0  0  0  0
  2  1  1  6
  2  3  1  0
  2 17  1  0
  2 31  1  0
  3  4  1  0
  3 16  2  0
  4  5  2  0
  4  9  1  0
  5  6  1  0
  5 45  1  0
  6  7  2  0
  6 46  1  0
  7  8  1  0
  7 47  1  0
  8  9  2  0
  8 48  1  0
  9 10  1  0
 10 11  2  0
 10 49  1  0
 11 12  1  0
 11 16  1  0
 12 13  2  0
 12 50  1  0
 13 14  1  0
 13 51  1  0
 14 15  2  0
 14 52  1  0
 15 16  1  0
 15 53  1  0
 17 18  1  0
 17 30  2  0
 18 19  2  0
 18 23  1  0
 19 20  1  0
 19 54  1  0
 20 21  2  0
 20 55  1  0
 21 22  1  0
 21 56  1  0
 22 23  2  0
 22 57  1  0
 23 24  1  0
 24 25  2  0
 24 58  1  0
 25 26  1  0
 25 30  1  0
 26 27  2  0
 26 59  1  0
 27 28  1  0
 27 60  1  0
 28 29  2  0
 28 61  1  0
 29 30  1  0
 29 62  1  0
 31 32  1  0
 31 44  2  0
 32 33  2  0
 32 37  1  0
 33 34  1  0
 33 63  1  0
 34 35  2  0
 34 64  1  0
 35 36  1  0
 35 65  1  0
 36 37  2  0
 36 66  1  0
 37 38  1  0
 38 39  2  0
 38 67  1  0
 39 40  1  0
 39 44  1  0
 40 41  2  0
 40 68  1  0
 41 42  1  0
 41 69  1  0
 42 43  2  0
 42 70  1  0
 43 44  1  0
 43 71  1  0
M  END

