
     RDKit          3D

 72 81  0  0  0  0  0  0  0  0999 V2000
    0.0087    8.8254    0.2456 N   0  0  0  0  0  0  0  0  0  0  0  0
    0.3610    7.7159    0.2554 C   0  0  0  0  0  0  0  0  0  0  0  0
    0.7810    6.3480    0.2658 C   0  0  0  0  0  0  0  0  0  0  0  0
   -0.1805    5.3896    0.1136 N   0  0  0  0  0  0  0  0  0  0  0  0
    0.2504    4.1146    0.1295 C   0  0  0  0  0  0  0  0  0  0  0  0
   -0.7393    3.0456   -0.0310 C   0  0  0  0  0  0  0  0  0  0  0  0
   -2.1016    3.3815   -0.1961 C   0  0  0  0  0  0  0  0  0  0  0  0
   -3.0674    2.4025   -0.3544 C   0  0  0  0  0  0  0  0  0  0  0  0
   -2.6892    1.0434   -0.3529 C   0  0  0  0  0  0  0  0  0  0  0  0
   -3.6739    0.0149   -0.5194 N   0  0  0  0  0  0  0  0  0  0  0  0
   -4.0274   -0.4285   -1.8072 C   0  0  0  0  0  0  0  0  0  0  0  0
   -3.4671    0.1043   -2.9771 C   0  0  0  0  0  0  0  0  0  0  0  0
   -3.8484   -0.3706   -4.2389 C   0  0  0  0  0  0  0  0  0  0  0  0
   -4.7961   -1.3851   -4.3543 C   0  0  0  0  0  0  0  0  0  0  0  0
   -5.3653   -1.9261   -3.1939 C   0  0  0  0  0  0  0  0  0  0  0  0
   -4.9866   -1.4570   -1.9410 C   0  0  0  0  0  0  0  0  0  0  0  0
   -5.5768   -2.0382   -0.8441 O   0  0  0  0  0  0  0  0  0  0  0  0
   -5.2837   -1.5531    0.4081 C   0  0  0  0  0  0  0  0  0  0  0  0
   -5.9558   -2.1188    1.4858 C   0  0  0  0  0  0  0  0  0  0  0  0
   -5.6991   -1.6781    2.7908 C   0  0  0  0  0  0  0  0  0  0  0  0
   -4.7653   -0.6648    2.9962 C   0  0  0  0  0  0  0  0  0  0  0  0
   -4.0884   -0.0928    1.9110 C   0  0  0  0  0  0  0  0  0  0  0  0
   -4.3330   -0.5258    0.5998 C   0  0  0  0  0  0  0  0  0  0  0  0
   -1.3554    0.6970   -0.1903 C   0  0  0  0  0  0  0  0  0  0  0  0
   -0.3484    1.6767   -0.0239 C   0  0  0  0  0  0  0  0  0  0  0  0
    1.0600    1.3368    0.1543 C   0  0  0  0  0  0  0  0  0  0  0  0
    1.5226    0.0021    0.1874 C   0  0  0  0  0  0  0  0  0  0  0  0
    2.8678   -0.2769    0.3668 C   0  0  0  0  0  0  0  0  0  0  0  0
    3.3096   -1.6692    0.4115 N   0  0  0  0  0  0  0  0  0  0  0  0
    3.3563   -2.3418    1.6195 C   0  0  0  0  0  0  0  0  0  0  0  0
    2.9846   -1.7401    2.8434 C   0  0  0  0  0  0  0  0  0  0  0  0
    3.0521   -2.4674    4.0198 C   0  0  0  0  0  0  0  0  0  0  0  0
    3.4878   -3.8095    4.0238 C   0  0  0  0  0  0  0  0  0  0  0  0
    3.8591   -4.4238    2.8357 C   0  0  0  0  0  0  0  0  0  0  0  0
    3.7940   -3.6960    1.6453 C   0  0  0  0  0  0  0  0  0  0  0  0
    4.1637   -4.3250    0.5033 O   0  0  0  0  0  0  0  0  0  0  0  0
    4.1258   -3.6695   -0.6820 C   0  0  0  0  0  0  0  0  0  0  0  0
    4.5217   -4.3710   -1.8231 C   0  0  0  0  0  0  0  0  0  0  0  0
    4.4962   -3.7287   -3.0534 C   0  0  0  0  0  0  0  0  0  0  0  0
    4.0754   -2.3846   -3.1412 C   0  0  0  0  0  0  0  0  0  0  0  0
    3.6805   -1.6833   -2.0144 C   0  0  0  0  0  0  0  0  0  0  0  0
    3.6951   -2.3142   -0.7496 C   0  0  0  0  0  0  0  0  0  0  0  0
    3.8197    0.7518    0.5175 C   0  0  0  0  0  0  0  0  0  0  0  0
    3.3880    2.0632    0.4857 C   0  0  0  0  0  0  0  0  0  0  0  0
    2.0164    2.3887    0.3091 C   0  0  0  0  0  0  0  0  0  0  0  0
    1.6062    3.7738    0.2928 C   0  0  0  0  0  0  0  0  0  0  0  0
    2.5751    4.7407    0.4449 N   0  0  0  0  0  0  0  0  0  0  0  0
    2.1416    6.0011    0.4277 C   0  0  0  0  0  0  0  0  0  0  0  0
    3.1471    7.0297    0.5866 C   0  0  0  0  0  0  0  0  0  0  0  0
    3.9696    7.8381    0.7156 N   0  0  0  0  0  0  0  0  0  0  0  0
   -2.3582    4.4414   -0.1940 H   0  0  0  0  0  0  0  0  0  0  0  0
   -4.1193    2.6666   -0.4821 H   0  0  0  0  0  0  0  0  0  0  0  0
   -2.7287    0.9022   -2.8971 H   0  0  0  0  0  0  0  0  0  0  0  0
   -3.3963    0.0682   -5.1316 H   0  0  0  0  0  0  0  0  0  0  0  0
   -5.1001   -1.7577   -5.3349 H   0  0  0  0  0  0  0  0  0  0  0  0
   -6.1130   -2.7207   -3.2377 H   0  0  0  0  0  0  0  0  0  0  0  0
   -6.6814   -2.9080    1.2784 H   0  0  0  0  0  0  0  0  0  0  0  0
   -6.2324   -2.1260    3.6320 H   0  0  0  0  0  0  0  0  0  0  0  0
   -4.5552   -0.3025    4.0054 H   0  0  0  0  0  0  0  0  0  0  0  0
   -3.3633    0.7033    2.0811 H   0  0  0  0  0  0  0  0  0  0  0  0
   -1.1091   -0.3651   -0.1956 H   0  0  0  0  0  0  0  0  0  0  0  0
    0.8209   -0.8249    0.0761 H   0  0  0  0  0  0  0  0  0  0  0  0
    2.6482   -0.7056    2.8430 H   0  0  0  0  0  0  0  0  0  0  0  0
    2.7620   -1.9907    4.9577 H   0  0  0  0  0  0  0  0  0  0  0  0
    3.5333   -4.3666    4.9610 H   0  0  0  0  0  0  0  0  0  0  0  0
    4.2010   -5.4589    2.7963 H   0  0  0  0  0  0  0  0  0  0  0  0
    4.8409   -5.4082   -1.7133 H   0  0  0  0  0  0  0  0  0  0  0  0
    4.8027   -4.2653   -3.9528 H   0  0  0  0  0  0  0  0  0  0  0  0
    4.0590   -1.8859   -4.1117 H   0  0  0  0  0  0  0  0  0  0  0  0
    3.3563   -0.6472   -2.0835 H   0  0  0  0  0  0  0  0  0  0  0  0
    4.8766    0.5141    0.6581 H   0  0  0  0  0  0  0  0  0  0  0  0
    4.0870    2.8922    0.5986 H   0  0  0  0  0  0  0  0  0  0  0  0
  1  2  3  0
  2  3  1  0
  3  4  2  0
  3 48  1  0
  4  5  1  0
  5  6  2  0
  5 46  1  0
  6  7  1  0
  6 25  1  0
  7  8  2  0
  7 51  1  0
  8  9  1  0
  8 52  1  0
  9 10  1  0
  9 24  2  0
 10 11  1  0
 10 23  1  0
 11 12  2  0
 11 16  1  0
 12 13  1  0
 12 53  1  0
 13 14  2  0
 13 54  1  0
 14 15  1  0
 14 55  1  0
 15 16  2  0
 15 56  1  0
 16 17  1  0
 17 18  1  0
 18 19  2  0
 18 23  1  0
 19 20  1  0
 19 57  1  0
 20 21  2  0
 20 58  1  0
 21 22  1  0
 21 59  1  0
 22 23  2  0
 22 60  1  0
 24 25  1  0
 24 61  1  0
 25 26  2  0
 26 27  1  0
 26 45  1  0
 27 28  2  0
 27 62  1  0
 28 29  1  0
 28 43  1  0
 29 30  1  0
 29 42  1  0
 30 31  2  0
 30 35  1  0
 31 32  1  0
 31 63  1  0
 32 33  2  0
 32 64  1  0
 33 34  1  0
 33 65  1  0
 34 35  2  0
 34 66  1  0
 35 36  1  0
 36 37  1  0
 37 38  2  0
 37 42  1  0
 38 39  1  0
 38 67  1  0
 39 40  2  0
 39 68  1  0
 40 41  1  0
 40 69  1  0
 41 42  2  0
 41 70  1  0
 43 44  2  0
 43 71  1  0
 44 45  1  0
 44 72  1  0
 45 46  2  0
 46 47  1  0
 47 48  2  0
 48 49  1  0
 49 50  3  0
M  END

