
     RDKit          3D

 34 37  0  0  0  0  0  0  0  0999 V2000
    3.4259   -0.9200   -0.8726 O   0  0  0  0  0  0  0  0  0  0  0  0
    2.7680   -0.0540    0.1796 P   0  0  1  0  0  0  0  0  0  0  0  0
    3.8052   -0.1139    1.7010 C   0  0  0  0  0  0  0  0  0  0  0  0
    3.5095    0.6476    2.8433 C   0  0  0  0  0  0  0  0  0  0  0  0
    4.3165    0.5532    3.9793 C   0  0  0  0  0  0  0  0  0  0  0  0
    5.4200   -0.3080    3.9838 C   0  0  0  0  0  0  0  0  0  0  0  0
    5.7162   -1.0723    2.8505 C   0  0  0  0  0  0  0  0  0  0  0  0
    4.9129   -0.9755    1.7104 C   0  0  0  0  0  0  0  0  0  0  0  0
    2.4218    1.6889   -0.2257 C   0  0  0  0  0  0  0  0  0  0  0  0
    3.3778    2.5557   -0.8073 C   0  0  0  0  0  0  0  0  0  0  0  0
    4.6599    2.2419   -1.2914 C   0  0  0  0  0  0  0  0  0  0  0  0
    5.3525    3.3598   -1.7912 C   0  0  0  0  0  0  0  0  0  0  0  0
    4.6184    4.5360   -1.7144 C   0  0  0  0  0  0  0  0  0  0  0  0
    3.0604    4.2906   -1.0247 S   0  0  0  0  0  0  0  0  0  0  0  0
    1.0486    2.0097    0.0028 C   0  0  0  0  0  0  0  0  0  0  0  0
    0.2725    0.9315    0.4711 C   0  0  0  0  0  0  0  0  0  0  0  0
   -1.1190    0.9228    0.7563 C   0  0  0  0  0  0  0  0  0  0  0  0
   -1.7242   -0.2415    1.1963 C   0  0  0  0  0  0  0  0  0  0  0  0
   -0.9637   -1.4345    1.3614 C   0  0  0  0  0  0  0  0  0  0  0  0
    0.4028   -1.4592    1.0858 C   0  0  0  0  0  0  0  0  0  0  0  0
    1.0460   -0.2951    0.6482 C   0  0  0  0  0  0  0  0  0  0  0  0
    2.6444    1.3167    2.8452 H   0  0  0  0  0  0  0  0  0  0  0  0
    4.0842    1.1503    4.8651 H   0  0  0  0  0  0  0  0  0  0  0  0
    6.0498   -0.3835    4.8743 H   0  0  0  0  0  0  0  0  0  0  0  0
    6.5777   -1.7456    2.8544 H   0  0  0  0  0  0  0  0  0  0  0  0
    5.1249   -1.5593    0.8117 H   0  0  0  0  0  0  0  0  0  0  0  0
    5.0216    1.2126   -1.3066 H   0  0  0  0  0  0  0  0  0  0  0  0
    6.3578    3.3169   -2.2132 H   0  0  0  0  0  0  0  0  0  0  0  0
    4.9234    5.5313   -2.0367 H   0  0  0  0  0  0  0  0  0  0  0  0
    0.6246    2.9944   -0.2139 H   0  0  0  0  0  0  0  0  0  0  0  0
   -1.7014    1.8386    0.6217 H   0  0  0  0  0  0  0  0  0  0  0  0
   -2.7945   -0.2527    1.4149 H   0  0  0  0  0  0  0  0  0  0  0  0
   -1.4633   -2.3430    1.7078 H   0  0  0  0  0  0  0  0  0  0  0  0
    0.9692   -2.3863    1.2101 H   0  0  0  0  0  0  0  0  0  0  0  0
  1  2  2  0
  2  3  1  1
  2  9  1  0
  2 21  1  0
  3  4  2  0
  3  8  1  0
  4  5  1  0
  4 22  1  0
  5  6  2  0
  5 23  1  0
  6  7  1  0
  6 24  1  0
  7  8  2  0
  7 25  1  0
  8 26  1  0
  9 10  1  0
  9 15  2  0
 10 11  2  0
 10 14  1  0
 11 12  1  0
 11 27  1  0
 12 13  2  0
 12 28  1  0
 13 14  1  0
 13 29  1  0
 15 16  1  0
 15 30  1  0
 16 17  1  0
 16 21  2  0
 17 18  2  0
 17 31  1  0
 18 19  1  0
 18 32  1  0
 19 20  2  0
 19 33  1  0
 20 21  1  0
 20 34  1  0
M  END

