
     RDKit          3D

 30 32  0  0  0  0  0  0  0  0999 V2000
    1.0156   -0.6569   -0.1481 C   0  0  0  0  0  0  0  0  0  0  0  0
    2.4768   -0.2004   -0.0568 C   0  0  0  0  0  0  0  0  0  0  0  0
    2.9046    1.3386   -0.0440 B   0  0  0  0  0  0  0  0  0  0  0  0
    1.9814    2.5959   -0.1181 C   0  0  0  0  0  0  0  0  0  0  0  0
    0.5741    2.6099   -0.2123 C   0  0  0  0  0  0  0  0  0  0  0  0
   -0.1878    3.8050   -0.2744 C   0  0  0  0  0  0  0  0  0  0  0  0
    0.4302    5.0496   -0.2448 C   0  0  0  0  0  0  0  0  0  0  0  0
    1.8392    5.0927   -0.1515 C   0  0  0  0  0  0  0  0  0  0  0  0
    2.5812    3.9021   -0.0914 C   0  0  0  0  0  0  0  0  0  0  0  0
    3.9569    4.0112   -0.0025 N   0  0  0  0  0  0  0  0  0  0  0  0
    4.8944    2.9999    0.0692 C   0  0  0  0  0  0  0  0  0  0  0  0
    6.2520    3.3535    0.1532 C   0  0  0  0  0  0  0  0  0  0  0  0
    7.2368    2.3445    0.2287 C   0  0  0  0  0  0  0  0  0  0  0  0
    6.8311    1.0142    0.2180 C   0  0  0  0  0  0  0  0  0  0  0  0
    5.4560    0.6753    0.1326 C   0  0  0  0  0  0  0  0  0  0  0  0
    4.4379    1.6445    0.0547 C   0  0  0  0  0  0  0  0  0  0  0  0
    0.9368   -1.7573   -0.1417 H   0  0  0  0  0  0  0  0  0  0  0  0
    0.5301   -0.3090   -1.0747 H   0  0  0  0  0  0  0  0  0  0  0  0
    0.4133   -0.2901    0.6993 H   0  0  0  0  0  0  0  0  0  0  0  0
    3.0415   -0.6785   -0.8850 H   0  0  0  0  0  0  0  0  0  0  0  0
    2.9280   -0.6620    0.8471 H   0  0  0  0  0  0  0  0  0  0  0  0
    0.0354    1.6648   -0.2395 H   0  0  0  0  0  0  0  0  0  0  0  0
   -1.2766    3.7361   -0.3463 H   0  0  0  0  0  0  0  0  0  0  0  0
   -0.1486    5.9736   -0.2920 H   0  0  0  0  0  0  0  0  0  0  0  0
    2.3602    6.0550   -0.1260 H   0  0  0  0  0  0  0  0  0  0  0  0
    4.3244    4.9592    0.0106 H   0  0  0  0  0  0  0  0  0  0  0  0
    6.5402    4.4093    0.1598 H   0  0  0  0  0  0  0  0  0  0  0  0
    8.2931    2.6119    0.2942 H   0  0  0  0  0  0  0  0  0  0  0  0
    7.5757    0.2157    0.2756 H   0  0  0  0  0  0  0  0  0  0  0  0
    5.1843   -0.3822    0.1272 H   0  0  0  0  0  0  0  0  0  0  0  0
  1  2  1  0
  1 17  1  0
  1 18  1  0
  1 19  1  0
  2  3  1  0
  2 20  1  0
  2 21  1  0
  3  4  1  0
  3 16  1  0
  4  5  1  0
  4  9  2  0
  5  6  2  0
  5 22  1  0
  6  7  1  0
  6 23  1  0
  7  8  2  0
  7 24  1  0
  8  9  1  0
  8 25  1  0
  9 10  1  0
 10 11  1  0
 10 26  1  0
 11 12  1  0
 11 16  2  0
 12 13  2  0
 12 27  1  0
 13 14  1  0
 13 28  1  0
 14 15  2  0
 14 29  1  0
 15 16  1  0
 15 30  1  0
M  END

