
     RDKit          3D

 44 48  0  0  0  0  0  0  0  0999 V2000
   -7.5343   -1.9825   -1.1736 N   0  0  0  0  0  0  0  0  0  0  0  0
   -6.4078   -2.1348   -0.9397 C   0  0  0  0  0  0  0  0  0  0  0  0
   -5.0156   -2.3262   -0.6344 C   0  0  0  0  0  0  0  0  0  0  0  0
   -4.4200   -3.5799   -0.8394 C   0  0  0  0  0  0  0  0  0  0  0  0
   -3.0585   -3.7435   -0.5425 C   0  0  0  0  0  0  0  0  0  0  0  0
   -2.4312   -5.0227   -0.7380 C   0  0  0  0  0  0  0  0  0  0  0  0
   -1.9213   -6.0534   -0.8944 N   0  0  0  0  0  0  0  0  0  0  0  0
   -2.3062   -2.6653   -0.0451 C   0  0  0  0  0  0  0  0  0  0  0  0
   -2.8935   -1.4067    0.1640 C   0  0  0  0  0  0  0  0  0  0  0  0
   -2.0942   -0.2675    0.6922 C   0  0  0  0  0  0  0  0  0  0  0  0
   -2.6619    0.6613    1.5836 C   0  0  0  0  0  0  0  0  0  0  0  0
   -1.9051    1.7293    2.0681 C   0  0  0  0  0  0  0  0  0  0  0  0
   -0.5723    1.8881    1.6847 C   0  0  0  0  0  0  0  0  0  0  0  0
    0.0073    0.9746    0.7912 C   0  0  0  0  0  0  0  0  0  0  0  0
    1.3547    1.1295    0.3803 N   0  0  0  0  0  0  0  0  0  0  0  0
    1.8995    2.2662   -0.2304 C   0  0  0  0  0  0  0  0  0  0  0  0
    1.2784    3.4671   -0.5959 C   0  0  0  0  0  0  0  0  0  0  0  0
    2.0595    4.4406   -1.2207 C   0  0  0  0  0  0  0  0  0  0  0  0
    3.4258    4.2283   -1.4828 C   0  0  0  0  0  0  0  0  0  0  0  0
    4.0367    3.0261   -1.1291 C   0  0  0  0  0  0  0  0  0  0  0  0
    3.2745    2.0308   -0.5006 C   0  0  0  0  0  0  0  0  0  0  0  0
    3.5719    0.6919   -0.0285 C   0  0  0  0  0  0  0  0  0  0  0  0
    4.7373   -0.0877   -0.0012 C   0  0  0  0  0  0  0  0  0  0  0  0
    4.6892   -1.3635    0.5588 C   0  0  0  0  0  0  0  0  0  0  0  0
    3.4894   -1.8627    1.0991 C   0  0  0  0  0  0  0  0  0  0  0  0
    2.3156   -1.1074    1.0842 C   0  0  0  0  0  0  0  0  0  0  0  0
    2.3647    0.1676    0.5066 C   0  0  0  0  0  0  0  0  0  0  0  0
   -0.7572   -0.0921    0.2981 C   0  0  0  0  0  0  0  0  0  0  0  0
   -4.2561   -1.2522   -0.1390 C   0  0  0  0  0  0  0  0  0  0  0  0
   -5.0064   -4.4147   -1.2244 H   0  0  0  0  0  0  0  0  0  0  0  0
   -1.2547   -2.8248    0.1980 H   0  0  0  0  0  0  0  0  0  0  0  0
   -3.6922    0.5341    1.9224 H   0  0  0  0  0  0  0  0  0  0  0  0
   -2.3528    2.4353    2.7716 H   0  0  0  0  0  0  0  0  0  0  0  0
    0.0279    2.7087    2.0816 H   0  0  0  0  0  0  0  0  0  0  0  0
    0.2178    3.6397   -0.4066 H   0  0  0  0  0  0  0  0  0  0  0  0
    1.5962    5.3861   -1.5141 H   0  0  0  0  0  0  0  0  0  0  0  0
    4.0090    5.0117   -1.9723 H   0  0  0  0  0  0  0  0  0  0  0  0
    5.0954    2.8586   -1.3424 H   0  0  0  0  0  0  0  0  0  0  0  0
    5.6724    0.3029   -0.4104 H   0  0  0  0  0  0  0  0  0  0  0  0
    5.5899   -1.9811    0.5846 H   0  0  0  0  0  0  0  0  0  0  0  0
    3.4741   -2.8610    1.5436 H   0  0  0  0  0  0  0  0  0  0  0  0
    1.3952   -1.4992    1.5198 H   0  0  0  0  0  0  0  0  0  0  0  0
   -0.3041   -0.7680   -0.4291 H   0  0  0  0  0  0  0  0  0  0  0  0
   -4.7368   -0.2812   -0.0121 H   0  0  0  0  0  0  0  0  0  0  0  0
  1  2  3  0
  2  3  1  0
  3  4  2  0
  3 29  1  0
  4  5  1  0
  4 30  1  0
  5  6  1  0
  5  8  2  0
  6  7  3  0
  8  9  1  0
  8 31  1  0
  9 10  1  0
  9 29  2  0
 10 11  2  0
 10 28  1  0
 11 12  1  0
 11 32  1  0
 12 13  2  0
 12 33  1  0
 13 14  1  0
 13 34  1  0
 14 15  1  0
 14 28  2  0
 15 16  1  0
 15 27  1  0
 16 17  2  0
 16 21  1  0
 17 18  1  0
 17 35  1  0
 18 19  2  0
 18 36  1  0
 19 20  1  0
 19 37  1  0
 20 21  2  0
 20 38  1  0
 21 22  1  0
 22 23  1  0
 22 27  2  0
 23 24  2  0
 23 39  1  0
 24 25  1  0
 24 40  1  0
 25 26  2  0
 25 41  1  0
 26 27  1  0
 26 42  1  0
 28 43  1  0
 29 44  1  0
M  END

