
     RDKit          3D

 17 18  0  0  0  0  0  0  0  0999 V2000
    0.8768    0.1585    0.3018 O   0  0  0  0  0  0  0  0  0  0  0  0
    2.0289   -0.1412    0.2063 C   0  0  0  0  0  0  0  0  0  0  0  0
    2.7493   -1.3504    0.1421 C   0  0  0  0  0  0  0  0  0  0  0  0
    4.1454   -1.4203    0.0246 C   0  0  0  0  0  0  0  0  0  0  0  0
    4.9252   -0.2094   -0.0391 C   0  0  0  0  0  0  0  0  0  0  0  0
    6.3080   -0.1577   -0.1582 C   0  0  0  0  0  0  0  0  0  0  0  0
    7.0359    1.0811   -0.2186 C   0  0  0  0  0  0  0  0  0  0  0  0
    6.3702    2.3017   -0.1594 C   0  0  0  0  0  0  0  0  0  0  0  0
    4.9727    2.2902   -0.0389 C   0  0  0  0  0  0  0  0  0  0  0  0
    4.2444    1.0592    0.0223 C   0  0  0  0  0  0  0  0  0  0  0  0
    2.9412    1.1412    0.1366 O   0  0  0  0  0  0  0  0  0  0  0  0
    2.1373   -2.2520    0.1907 H   0  0  0  0  0  0  0  0  0  0  0  0
    4.6521   -2.3840   -0.0207 H   0  0  0  0  0  0  0  0  0  0  0  0
    6.8692   -1.0945   -0.2085 H   0  0  0  0  0  0  0  0  0  0  0  0
    8.1237    1.0454   -0.3122 H   0  0  0  0  0  0  0  0  0  0  0  0
    6.9146    3.2460   -0.2049 H   0  0  0  0  0  0  0  0  0  0  0  0
    4.3905    3.2125    0.0131 H   0  0  0  0  0  0  0  0  0  0  0  0
  1  2  2  0
  2  3  1  0
  2 11  1  0
  3  4  2  0
  3 12  1  0
  4  5  1  0
  4 13  1  0
  5  6  1  0
  5 10  2  0
  6  7  2  0
  6 14  1  0
  7  8  1  0
  7 15  1  0
  8  9  2  0
  8 16  1  0
  9 10  1  0
  9 17  1  0
 10 11  1  0
M  END

