
     RDKit          3D

 55 58  0  0  0  0  0  0  0  0999 V2000
    5.2252    1.7599    0.1426 C   0  0  0  0  0  0  0  0  0  0  0  0
    4.3169    1.3010    1.2712 C   0  0  0  0  0  0  0  0  0  0  0  0
    4.6547   -0.0233    1.7234 O   0  0  0  0  0  0  0  0  0  0  0  0
    4.0972   -1.0633    1.0770 C   0  0  0  0  0  0  0  0  0  0  0  0
    3.3643   -0.9473    0.1182 O   0  0  0  0  0  0  0  0  0  0  0  0
    4.4993   -2.3577    1.6551 C   0  0  0  0  0  0  0  0  0  0  0  0
    5.3799   -2.6725    2.7328 C   0  0  0  0  0  0  0  0  0  0  0  0
    6.1041   -1.7513    3.6360 C   0  0  0  0  0  0  0  0  0  0  0  0
    7.4602   -1.6087    3.6571 C   0  0  0  0  0  0  0  0  0  0  0  0
    8.4607   -2.5025    2.5495 Cl  0  0  0  0  0  0  0  0  0  0  0  0
    8.1137   -0.6953    4.5778 C   0  0  0  0  0  0  0  0  0  0  0  0
    9.5074   -0.4972    4.6677 C   0  0  0  0  0  0  0  0  0  0  0  0
   10.0631    0.4036    5.5742 C   0  0  0  0  0  0  0  0  0  0  0  0
   11.5558    0.6067    5.6679 C   0  0  0  0  0  0  0  0  0  0  0  0
    9.1886    1.1274    6.4137 C   0  0  0  0  0  0  0  0  0  0  0  0
    7.8117    0.9554    6.3486 C   0  0  0  0  0  0  0  0  0  0  0  0
    7.2735    0.0450    5.4318 C   0  0  0  0  0  0  0  0  0  0  0  0
    5.9246   -0.0925    5.4029 O   0  0  0  0  0  0  0  0  0  0  0  0
    5.2629   -0.9710    4.5653 C   0  0  0  0  0  0  0  0  0  0  0  0
    4.0671   -1.0439    4.6483 O   0  0  0  0  0  0  0  0  0  0  0  0
    5.4890   -3.9838    2.8833 N   0  0  0  0  0  0  0  0  0  0  0  0
    4.7157   -4.5415    1.9269 N   0  0  0  0  0  0  0  0  0  0  0  0
    4.5965   -5.9674    1.8915 C   0  0  0  0  0  0  0  0  0  0  0  0
    4.5058   -6.6587    3.1073 C   0  0  0  0  0  0  0  0  0  0  0  0
    4.4071   -8.0500    3.0997 C   0  0  0  0  0  0  0  0  0  0  0  0
    4.3945   -8.7516    1.8891 C   0  0  0  0  0  0  0  0  0  0  0  0
    4.4929   -8.0533    0.6830 C   0  0  0  0  0  0  0  0  0  0  0  0
    4.6042   -6.6597    0.6746 C   0  0  0  0  0  0  0  0  0  0  0  0
    4.0874   -3.5959    1.1702 C   0  0  0  0  0  0  0  0  0  0  0  0
    3.1345   -3.8707    0.0416 C   0  0  0  0  0  0  0  0  0  0  0  0
    3.4664   -4.3234   -1.0280 O   0  0  0  0  0  0  0  0  0  0  0  0
    1.8935   -3.5443    0.3897 O   0  0  0  0  0  0  0  0  0  0  0  0
    0.8751   -3.5882   -0.6331 C   0  0  0  0  0  0  0  0  0  0  0  0
    0.2349   -4.9622   -0.7258 C   0  0  0  0  0  0  0  0  0  0  0  0
    4.9908    2.8030   -0.1245 H   0  0  0  0  0  0  0  0  0  0  0  0
    5.0816    1.1369   -0.7525 H   0  0  0  0  0  0  0  0  0  0  0  0
    6.2836    1.7115    0.4428 H   0  0  0  0  0  0  0  0  0  0  0  0
    3.2631    1.3104    0.9575 H   0  0  0  0  0  0  0  0  0  0  0  0
    4.4310    1.9348    2.1624 H   0  0  0  0  0  0  0  0  0  0  0  0
   10.1552   -1.0718    4.0041 H   0  0  0  0  0  0  0  0  0  0  0  0
   12.0944   -0.0127    4.9364 H   0  0  0  0  0  0  0  0  0  0  0  0
   11.9323    0.3462    6.6714 H   0  0  0  0  0  0  0  0  0  0  0  0
   11.8293    1.6592    5.4853 H   0  0  0  0  0  0  0  0  0  0  0  0
    9.6025    1.8398    7.1330 H   0  0  0  0  0  0  0  0  0  0  0  0
    7.1296    1.5105    6.9948 H   0  0  0  0  0  0  0  0  0  0  0  0
    4.5209   -6.0962    4.0411 H   0  0  0  0  0  0  0  0  0  0  0  0
    4.3350   -8.5890    4.0476 H   0  0  0  0  0  0  0  0  0  0  0  0
    4.3139   -9.8413    1.8875 H   0  0  0  0  0  0  0  0  0  0  0  0
    4.4981   -8.5945   -0.2663 H   0  0  0  0  0  0  0  0  0  0  0  0
    4.7000   -6.1147   -0.2641 H   0  0  0  0  0  0  0  0  0  0  0  0
    1.3272   -3.2898   -1.5897 H   0  0  0  0  0  0  0  0  0  0  0  0
    0.1487   -2.8231   -0.3257 H   0  0  0  0  0  0  0  0  0  0  0  0
    0.9655   -5.7152   -1.0562 H   0  0  0  0  0  0  0  0  0  0  0  0
   -0.5886   -4.9394   -1.4576 H   0  0  0  0  0  0  0  0  0  0  0  0
   -0.1780   -5.2717    0.2468 H   0  0  0  0  0  0  0  0  0  0  0  0
  1  2  1  0
  1 35  1  0
  1 36  1  0
  1 37  1  0
  2  3  1  0
  2 38  1  0
  2 39  1  0
  3  4  1  0
  4  5  2  0
  4  6  1  0
  6  7  1  0
  6 29  2  0
  7  8  1  0
  7 21  2  0
  8  9  2  0
  8 19  1  0
  9 10  1  0
  9 11  1  0
 11 12  2  0
 11 17  1  0
 12 13  1  0
 12 40  1  0
 13 14  1  0
 13 15  2  0
 14 41  1  0
 14 42  1  0
 14 43  1  0
 15 16  1  0
 15 44  1  0
 16 17  2  0
 16 45  1  0
 17 18  1  0
 18 19  1  0
 19 20  2  0
 21 22  1  0
 22 23  1  0
 22 29  1  0
 23 24  2  0
 23 28  1  0
 24 25  1  0
 24 46  1  0
 25 26  2  0
 25 47  1  0
 26 27  1  0
 26 48  1  0
 27 28  2  0
 27 49  1  0
 28 50  1  0
 29 30  1  0
 30 31  2  0
 30 32  1  0
 32 33  1  0
 33 34  1  0
 33 51  1  0
 33 52  1  0
 34 53  1  0
 34 54  1  0
 34 55  1  0
M  END

