
     RDKit          3D

 87 96  0  0  0  0  0  0  0  0999 V2000
   -4.0547   -3.3914   -4.0017 C   0  0  0  0  0  0  0  0  0  0  0  0
   -3.3857   -2.5105   -2.9749 C   0  0  0  0  0  0  0  0  0  0  0  0
   -1.9863   -2.4554   -2.8644 C   0  0  0  0  0  0  0  0  0  0  0  0
   -1.3685   -1.6466   -1.9198 C   0  0  0  0  0  0  0  0  0  0  0  0
   -2.1259   -0.8474   -1.0327 C   0  0  0  0  0  0  0  0  0  0  0  0
   -3.5314   -0.8867   -1.1271 C   0  0  0  0  0  0  0  0  0  0  0  0
   -4.1218   -1.7163   -2.0940 C   0  0  0  0  0  0  0  0  0  0  0  0
   -4.4397   -0.0570   -0.2108 C   0  0  1  0  0  0  0  0  0  0  0  0
   -5.4065    0.8153   -1.0327 C   0  0  0  0  0  0  0  0  0  0  0  0
   -5.0999    1.8380   -1.9257 C   0  0  0  0  0  0  0  0  0  0  0  0
   -6.1441    2.5106   -2.5739 C   0  0  0  0  0  0  0  0  0  0  0  0
   -7.4789    2.1600   -2.3280 C   0  0  0  0  0  0  0  0  0  0  0  0
   -7.7906    1.1325   -1.4318 C   0  0  0  0  0  0  0  0  0  0  0  0
   -6.7478    0.4603   -0.7838 C   0  0  0  0  0  0  0  0  0  0  0  0
   -6.7680   -0.6410    0.1917 C   0  0  0  0  0  0  0  0  0  0  0  0
   -7.8359   -1.3440    0.7614 C   0  0  0  0  0  0  0  0  0  0  0  0
   -7.5615   -2.3640    1.6782 C   0  0  0  0  0  0  0  0  0  0  0  0
   -6.2389   -2.6771    2.0214 C   0  0  0  0  0  0  0  0  0  0  0  0
   -5.1696   -1.9734    1.4519 C   0  0  0  0  0  0  0  0  0  0  0  0
   -5.4390   -0.9579    0.5388 C   0  0  0  0  0  0  0  0  0  0  0  0
   -3.6257    0.7960    0.7701 C   0  0  0  0  0  0  0  0  0  0  0  0
   -4.3095    1.6247    1.6744 C   0  0  0  0  0  0  0  0  0  0  0  0
   -3.6637    2.4354    2.6094 C   0  0  0  0  0  0  0  0  0  0  0  0
   -4.4314    3.3156    3.5655 C   0  0  0  0  0  0  0  0  0  0  0  0
   -2.2595    2.3981    2.6226 C   0  0  0  0  0  0  0  0  0  0  0  0
   -1.5507    1.5906    1.7430 C   0  0  0  0  0  0  0  0  0  0  0  0
   -2.2169    0.7750    0.7994 C   0  0  0  0  0  0  0  0  0  0  0  0
   -1.4826   -0.0349   -0.0836 N   0  0  0  0  0  0  0  0  0  0  0  0
   -0.0504   -0.0219   -0.0219 C   0  0  0  0  0  0  0  0  0  0  0  0
    0.6312   -0.9308    0.7983 C   0  0  0  0  0  0  0  0  0  0  0  0
    2.0239   -0.9143    0.8624 C   0  0  0  0  0  0  0  0  0  0  0  0
    2.7644    0.0143    0.1109 C   0  0  0  0  0  0  0  0  0  0  0  0
    4.2533    0.0381    0.1859 C   0  0  0  0  0  0  0  0  0  0  0  0
    4.8487   -0.8790    0.9571 N   0  0  0  0  0  0  0  0  0  0  0  0
    6.1868   -0.8706    1.0345 C   0  0  0  0  0  0  0  0  0  0  0  0
    6.8302   -1.8972    1.9009 C   0  0  0  0  0  0  0  0  0  0  0  0
    6.0578   -2.5898    2.8512 C   0  0  0  0  0  0  0  0  0  0  0  0
    6.6386   -3.5502    3.6794 C   0  0  0  0  0  0  0  0  0  0  0  0
    8.0014   -3.8450    3.5684 C   0  0  0  0  0  0  0  0  0  0  0  0
    8.7784   -3.1716    2.6210 C   0  0  0  0  0  0  0  0  0  0  0  0
    8.1988   -2.2062    1.7961 C   0  0  0  0  0  0  0  0  0  0  0  0
    6.9292    0.0890    0.3291 C   0  0  0  0  0  0  0  0  0  0  0  0
    6.2317    1.0107   -0.4670 C   0  0  0  0  0  0  0  0  0  0  0  0
    6.9230    2.0690   -1.2551 C   0  0  0  0  0  0  0  0  0  0  0  0
    8.3009    2.0097   -1.5332 C   0  0  0  0  0  0  0  0  0  0  0  0
    8.9248    3.0169   -2.2714 C   0  0  0  0  0  0  0  0  0  0  0  0
    8.1835    4.1043   -2.7434 C   0  0  0  0  0  0  0  0  0  0  0  0
    6.8121    4.1729   -2.4771 C   0  0  0  0  0  0  0  0  0  0  0  0
    6.1872    3.1638   -1.7444 C   0  0  0  0  0  0  0  0  0  0  0  0
    4.8932    0.9725   -0.5266 N   0  0  0  0  0  0  0  0  0  0  0  0
    2.0746    0.9200   -0.7135 C   0  0  0  0  0  0  0  0  0  0  0  0
    0.6821    0.9016   -0.7798 C   0  0  0  0  0  0  0  0  0  0  0  0
   -3.7392   -3.1299   -5.0262 H   0  0  0  0  0  0  0  0  0  0  0  0
   -3.7996   -4.4544   -3.8505 H   0  0  0  0  0  0  0  0  0  0  0  0
   -5.1503   -3.3022   -3.9569 H   0  0  0  0  0  0  0  0  0  0  0  0
   -1.3632   -3.0579   -3.5323 H   0  0  0  0  0  0  0  0  0  0  0  0
   -0.2807   -1.6294   -1.8644 H   0  0  0  0  0  0  0  0  0  0  0  0
   -5.2129   -1.7360   -2.1547 H   0  0  0  0  0  0  0  0  0  0  0  0
   -4.0600    2.1133   -2.1194 H   0  0  0  0  0  0  0  0  0  0  0  0
   -5.9165    3.3159   -3.2772 H   0  0  0  0  0  0  0  0  0  0  0  0
   -8.2827    2.6942   -2.8413 H   0  0  0  0  0  0  0  0  0  0  0  0
   -8.8329    0.8619   -1.2435 H   0  0  0  0  0  0  0  0  0  0  0  0
   -8.8688   -1.1035    0.4964 H   0  0  0  0  0  0  0  0  0  0  0  0
   -8.3852   -2.9222    2.1308 H   0  0  0  0  0  0  0  0  0  0  0  0
   -6.0406   -3.4773    2.7393 H   0  0  0  0  0  0  0  0  0  0  0  0
   -4.1392   -2.2191    1.7214 H   0  0  0  0  0  0  0  0  0  0  0  0
   -5.4019    1.6297    1.6397 H   0  0  0  0  0  0  0  0  0  0  0  0
   -4.1970    3.0728    4.6160 H   0  0  0  0  0  0  0  0  0  0  0  0
   -4.1841    4.3814    3.4212 H   0  0  0  0  0  0  0  0  0  0  0  0
   -5.5177    3.2049    3.4317 H   0  0  0  0  0  0  0  0  0  0  0  0
   -1.7053    3.0142    3.3373 H   0  0  0  0  0  0  0  0  0  0  0  0
   -0.4622    1.5882    1.7832 H   0  0  0  0  0  0  0  0  0  0  0  0
    0.0575   -1.6513    1.3853 H   0  0  0  0  0  0  0  0  0  0  0  0
    2.5584   -1.6219    1.4964 H   0  0  0  0  0  0  0  0  0  0  0  0
    4.9960   -2.3547    2.9284 H   0  0  0  0  0  0  0  0  0  0  0  0
    6.0240   -4.0728    4.4168 H   0  0  0  0  0  0  0  0  0  0  0  0
    8.4560   -4.5997    4.2151 H   0  0  0  0  0  0  0  0  0  0  0  0
    9.8416   -3.4033    2.5188 H   0  0  0  0  0  0  0  0  0  0  0  0
    8.8204   -1.7084    1.0495 H   0  0  0  0  0  0  0  0  0  0  0  0
    8.0111    0.1409    0.4278 H   0  0  0  0  0  0  0  0  0  0  0  0
    8.8960    1.1607   -1.1918 H   0  0  0  0  0  0  0  0  0  0  0  0
    9.9947    2.9489   -2.4835 H   0  0  0  0  0  0  0  0  0  0  0  0
    8.6727    4.8937   -3.3196 H   0  0  0  0  0  0  0  0  0  0  0  0
    6.2254    5.0195   -2.8429 H   0  0  0  0  0  0  0  0  0  0  0  0
    5.1186    3.2079   -1.5328 H   0  0  0  0  0  0  0  0  0  0  0  0
    2.6490    1.6355   -1.3023 H   0  0  0  0  0  0  0  0  0  0  0  0
    0.1482    1.6060   -1.4213 H   0  0  0  0  0  0  0  0  0  0  0  0
  1  2  1  0
  1 53  1  0
  1 54  1  0
  1 55  1  0
  2  3  2  0
  2  7  1  0
  3  4  1  0
  3 56  1  0
  4  5  2  0
  4 57  1  0
  5  6  1  0
  5 28  1  0
  6  7  2  0
  8  6  1  6
  7 58  1  0
  8  9  1  0
  8 20  1  0
  8 21  1  0
  9 10  2  0
  9 14  1  0
 10 11  1  0
 10 59  1  0
 11 12  2  0
 11 60  1  0
 12 13  1  0
 12 61  1  0
 13 14  2  0
 13 62  1  0
 14 15  1  0
 15 16  2  0
 15 20  1  0
 16 17  1  0
 16 63  1  0
 17 18  2  0
 17 64  1  0
 18 19  1  0
 18 65  1  0
 19 20  2  0
 19 66  1  0
 21 22  1  0
 21 27  2  0
 22 23  2  0
 22 67  1  0
 23 24  1  0
 23 25  1  0
 24 68  1  0
 24 69  1  0
 24 70  1  0
 25 26  2  0
 25 71  1  0
 26 27  1  0
 26 72  1  0
 27 28  1  0
 28 29  1  0
 29 30  2  0
 29 52  1  0
 30 31  1  0
 30 73  1  0
 31 32  2  0
 31 74  1  0
 32 33  1  0
 32 51  1  0
 33 34  2  0
 33 50  1  0
 34 35  1  0
 35 36  1  0
 35 42  2  0
 36 37  2  0
 36 41  1  0
 37 38  1  0
 37 75  1  0
 38 39  2  0
 38 76  1  0
 39 40  1  0
 39 77  1  0
 40 41  2  0
 40 78  1  0
 41 79  1  0
 42 43  1  0
 42 80  1  0
 43 44  1  0
 43 50  2  0
 44 45  2  0
 44 49  1  0
 45 46  1  0
 45 81  1  0
 46 47  2  0
 46 82  1  0
 47 48  1  0
 47 83  1  0
 48 49  2  0
 48 84  1  0
 49 85  1  0
 51 52  2  0
 51 86  1  0
 52 87  1  0
M  END

