
     RDKit          3D

 92 99  0  0  0  0  0  0  0  0999 V2000
    2.3707   -1.0334   -1.4197 C   0  0  0  0  0  0  0  0  0  0  0  0
    3.5595   -0.5934   -0.5339 C   0  0  1  0  0  0  0  0  0  0  0  0
    3.8060   -1.6569    0.5617 C   0  0  0  0  0  0  0  0  0  0  0  0
    4.8147   -0.5218   -1.4225 C   0  0  0  0  0  0  0  0  0  0  0  0
    3.2380    0.7630    0.1290 C   0  0  0  0  0  0  0  0  0  0  0  0
    2.0988    0.8615    0.9706 C   0  0  0  0  0  0  0  0  0  0  0  0
    1.6936    2.0308    1.6375 C   0  0  0  0  0  0  0  0  0  0  0  0
    0.4538    2.1156    2.5464 C   0  0  1  0  0  0  0  0  0  0  0  0
   -0.2859    0.7683    2.6244 C   0  0  0  0  0  0  0  0  0  0  0  0
    0.8867    2.5171    3.9774 C   0  0  0  0  0  0  0  0  0  0  0  0
   -0.5260    3.1774    1.9909 C   0  0  0  0  0  0  0  0  0  0  0  0
    2.5244    3.1315    1.4043 C   0  0  0  0  0  0  0  0  0  0  0  0
    2.3465    4.3899    1.9398 O   0  0  0  0  0  0  0  0  0  0  0  0
    3.3602    5.1579    1.4692 C   0  0  0  0  0  0  0  0  0  0  0  0
    4.2244    4.4232    0.6171 C   0  0  0  0  0  0  0  0  0  0  0  0
    3.6720    3.0974    0.5781 C   0  0  0  0  0  0  0  0  0  0  0  0
    4.0285    1.8963   -0.0661 C   0  0  0  0  0  0  0  0  0  0  0  0
    5.3421    5.0872    0.0397 C   0  0  0  0  0  0  0  0  0  0  0  0
    5.5422    6.4169    0.3281 C   0  0  0  0  0  0  0  0  0  0  0  0
    4.6819    7.0904    1.1554 N   0  0  0  0  0  0  0  0  0  0  0  0
    4.8060    8.5011    1.5204 C   0  0  0  0  0  0  0  0  0  0  0  0
    5.7079    9.2057    1.1083 O   0  0  0  0  0  0  0  0  0  0  0  0
    3.6689    8.7072    2.3908 C   0  0  0  0  0  0  0  0  0  0  0  0
    3.0382    9.7251    3.1630 C   0  0  0  0  0  0  0  0  0  0  0  0
    3.2386   11.0630    3.4513 C   0  0  0  0  0  0  0  0  0  0  0  0
    4.2524   11.8311    2.9808 O   0  0  0  0  0  0  0  0  0  0  0  0
    4.0736   13.0898    3.5151 C   0  0  0  0  0  0  0  0  0  0  0  0
    4.9042   14.1907    3.2816 C   0  0  0  0  0  0  0  0  0  0  0  0
    6.1448   14.1055    2.3738 C   0  0  1  0  0  0  0  0  0  0  0  0
    5.7136   13.7018    0.9430 C   0  0  0  0  0  0  0  0  0  0  0  0
    6.8836   15.4533    2.2947 C   0  0  0  0  0  0  0  0  0  0  0  0
    7.1248   13.0452    2.9318 C   0  0  0  0  0  0  0  0  0  0  0  0
    4.4980   15.3604    3.9472 C   0  0  0  0  0  0  0  0  0  0  0  0
    3.3581   15.4591    4.7879 C   0  0  0  0  0  0  0  0  0  0  0  0
    3.0356   16.8160    5.4494 C   0  0  1  0  0  0  0  0  0  0  0  0
    2.7894   17.8784    4.3528 C   0  0  0  0  0  0  0  0  0  0  0  0
    1.7799   16.7446    6.3372 C   0  0  0  0  0  0  0  0  0  0  0  0
    4.2236   17.2572    6.3356 C   0  0  0  0  0  0  0  0  0  0  0  0
    2.5680   14.3256    4.9835 C   0  0  0  0  0  0  0  0  0  0  0  0
    2.9254   13.1241    4.3406 C   0  0  0  0  0  0  0  0  0  0  0  0
    2.3736   11.7982    4.3023 C   0  0  0  0  0  0  0  0  0  0  0  0
    1.2557   11.1342    4.8794 C   0  0  0  0  0  0  0  0  0  0  0  0
    1.0562    9.8042    4.5918 C   0  0  0  0  0  0  0  0  0  0  0  0
    1.9173    9.1304    3.7655 N   0  0  0  0  0  0  0  0  0  0  0  0
    1.7937    7.7195    3.4012 C   0  0  0  0  0  0  0  0  0  0  0  0
    0.8913    7.0151    3.8125 O   0  0  0  0  0  0  0  0  0  0  0  0
    2.9309    7.5133    2.5311 C   0  0  0  0  0  0  0  0  0  0  0  0
    3.5612    6.4957    1.7581 C   0  0  0  0  0  0  0  0  0  0  0  0
    2.5887   -1.9998   -1.9036 H   0  0  0  0  0  0  0  0  0  0  0  0
    2.1735   -0.2930   -2.2112 H   0  0  0  0  0  0  0  0  0  0  0  0
    1.4448   -1.1559   -0.8376 H   0  0  0  0  0  0  0  0  0  0  0  0
    4.0389   -2.6331    0.1052 H   0  0  0  0  0  0  0  0  0  0  0  0
    2.9259   -1.7939    1.2081 H   0  0  0  0  0  0  0  0  0  0  0  0
    4.6528   -1.3714    1.2059 H   0  0  0  0  0  0  0  0  0  0  0  0
    5.0067   -1.5066   -1.8767 H   0  0  0  0  0  0  0  0  0  0  0  0
    5.7119   -0.2445   -0.8473 H   0  0  0  0  0  0  0  0  0  0  0  0
    4.6958    0.2022   -2.2439 H   0  0  0  0  0  0  0  0  0  0  0  0
    1.4957   -0.0342    1.1091 H   0  0  0  0  0  0  0  0  0  0  0  0
    0.3485   -0.0291    3.0427 H   0  0  0  0  0  0  0  0  0  0  0  0
   -0.6492    0.4381    1.6384 H   0  0  0  0  0  0  0  0  0  0  0  0
   -1.1633    0.8699    3.2818 H   0  0  0  0  0  0  0  0  0  0  0  0
    1.5973    1.7856    4.3947 H   0  0  0  0  0  0  0  0  0  0  0  0
    0.0065    2.5509    4.6403 H   0  0  0  0  0  0  0  0  0  0  0  0
    1.3550    3.5108    3.9976 H   0  0  0  0  0  0  0  0  0  0  0  0
   -0.8387    2.9272    0.9642 H   0  0  0  0  0  0  0  0  0  0  0  0
   -0.0790    4.1810    1.9861 H   0  0  0  0  0  0  0  0  0  0  0  0
   -1.4304    3.2188    2.6199 H   0  0  0  0  0  0  0  0  0  0  0  0
    4.9119    1.8728   -0.7026 H   0  0  0  0  0  0  0  0  0  0  0  0
    6.0374    4.5681   -0.6210 H   0  0  0  0  0  0  0  0  0  0  0  0
    6.3640    7.0210   -0.0590 H   0  0  0  0  0  0  0  0  0  0  0  0
    5.0026   14.4321    0.5241 H   0  0  0  0  0  0  0  0  0  0  0  0
    5.2463   12.7076    0.9235 H   0  0  0  0  0  0  0  0  0  0  0  0
    6.5944   13.6681    0.2810 H   0  0  0  0  0  0  0  0  0  0  0  0
    6.2490   16.2496    1.8748 H   0  0  0  0  0  0  0  0  0  0  0  0
    7.7617   15.3514    1.6382 H   0  0  0  0  0  0  0  0  0  0  0  0
    7.2459   15.7850    3.2806 H   0  0  0  0  0  0  0  0  0  0  0  0
    6.6783   12.0414    2.9378 H   0  0  0  0  0  0  0  0  0  0  0  0
    7.4365   13.2972    3.9583 H   0  0  0  0  0  0  0  0  0  0  0  0
    8.0297   13.0033    2.3036 H   0  0  0  0  0  0  0  0  0  0  0  0
    5.1007   16.2563    3.8082 H   0  0  0  0  0  0  0  0  0  0  0  0
    1.9431   17.5920    3.7082 H   0  0  0  0  0  0  0  0  0  0  0  0
    3.6699   18.0152    3.7068 H   0  0  0  0  0  0  0  0  0  0  0  0
    2.5558   18.8550    4.8082 H   0  0  0  0  0  0  0  0  0  0  0  0
    0.8832   16.4664    5.7617 H   0  0  0  0  0  0  0  0  0  0  0  0
    1.5872   17.7297    6.7905 H   0  0  0  0  0  0  0  0  0  0  0  0
    1.8986   16.0214    7.1593 H   0  0  0  0  0  0  0  0  0  0  0  0
    5.1498   17.3797    5.7540 H   0  0  0  0  0  0  0  0  0  0  0  0
    4.4207   16.5177    7.1279 H   0  0  0  0  0  0  0  0  0  0  0  0
    4.0048   18.2240    6.8185 H   0  0  0  0  0  0  0  0  0  0  0  0
    1.6842   14.3493    5.6193 H   0  0  0  0  0  0  0  0  0  0  0  0
    0.5598   11.6535    5.5393 H   0  0  0  0  0  0  0  0  0  0  0  0
    0.2344    9.2001    4.9789 H   0  0  0  0  0  0  0  0  0  0  0  0
  2  1  1  6
  1 49  1  0
  1 50  1  0
  1 51  1  0
  2  3  1  0
  2  4  1  0
  2  5  1  0
  3 52  1  0
  3 53  1  0
  3 54  1  0
  4 55  1  0
  4 56  1  0
  4 57  1  0
  5  6  2  0
  5 17  1  0
  6  7  1  0
  6 58  1  0
  7  8  1  0
  7 12  2  0
  8  9  1  1
  8 10  1  0
  8 11  1  0
  9 59  1  0
  9 60  1  0
  9 61  1  0
 10 62  1  0
 10 63  1  0
 10 64  1  0
 11 65  1  0
 11 66  1  0
 11 67  1  0
 12 13  1  0
 12 16  1  0
 13 14  1  0
 14 15  2  0
 14 48  1  0
 15 16  1  0
 15 18  1  0
 16 17  2  0
 17 68  1  0
 18 19  2  0
 18 69  1  0
 19 20  1  0
 19 70  1  0
 20 21  1  0
 20 48  1  0
 21 22  2  0
 21 23  1  0
 23 24  2  0
 23 47  1  0
 24 25  1  0
 24 44  1  0
 25 26  1  0
 25 41  2  0
 26 27  1  0
 27 28  2  0
 27 40  1  0
 28 29  1  0
 28 33  1  0
 29 30  1  6
 29 31  1  0
 29 32  1  0
 30 71  1  0
 30 72  1  0
 30 73  1  0
 31 74  1  0
 31 75  1  0
 31 76  1  0
 32 77  1  0
 32 78  1  0
 32 79  1  0
 33 34  2  0
 33 80  1  0
 34 35  1  0
 34 39  1  0
 35 36  1  6
 35 37  1  0
 35 38  1  0
 36 81  1  0
 36 82  1  0
 36 83  1  0
 37 84  1  0
 37 85  1  0
 37 86  1  0
 38 87  1  0
 38 88  1  0
 38 89  1  0
 39 40  2  0
 39 90  1  0
 40 41  1  0
 41 42  1  0
 42 43  2  0
 42 91  1  0
 43 44  1  0
 43 92  1  0
 44 45  1  0
 45 46  2  0
 45 47  1  0
 47 48  2  0
M  END

