
     RDKit          3D

 76 83  0  0  0  0  0  0  0  0999 V2000
   -0.6264    0.0684   -1.1115 C   0  0  0  0  0  0  0  0  0  0  0  0
    0.9195    0.0478   -1.1452 C   0  0  1  0  0  0  0  0  0  0  0  0
    1.4531    1.4962   -1.0457 C   0  0  0  0  0  0  0  0  0  0  0  0
    1.4129   -0.7300    0.0882 C   0  0  0  0  0  0  0  0  0  0  0  0
    1.4022   -0.5886   -2.4647 C   0  0  0  0  0  0  0  0  0  0  0  0
    1.0204   -0.0084   -3.7003 C   0  0  0  0  0  0  0  0  0  0  0  0
    1.4202   -0.5174   -4.9344 C   0  0  0  0  0  0  0  0  0  0  0  0
    2.2398   -1.6520   -4.9439 C   0  0  0  0  0  0  0  0  0  0  0  0
    2.6318   -2.2669   -3.7292 C   0  0  0  0  0  0  0  0  0  0  0  0
    2.2117   -1.7296   -2.5030 C   0  0  0  0  0  0  0  0  0  0  0  0
    3.4386   -3.4198   -4.0862 C   0  0  0  0  0  0  0  0  0  0  0  0
    4.1081   -4.3961   -3.3400 C   0  0  0  0  0  0  0  0  0  0  0  0
    4.8453   -5.4074   -3.9750 C   0  0  0  0  0  0  0  0  0  0  0  0
    5.5645   -6.4779   -3.1264 C   0  0  1  0  0  0  0  0  0  0  0  0
    4.5189   -7.2720   -2.3092 C   0  0  0  0  0  0  0  0  0  0  0  0
    6.3545   -7.4771   -3.9915 C   0  0  0  0  0  0  0  0  0  0  0  0
    6.5581   -5.7939   -2.1589 C   0  0  0  0  0  0  0  0  0  0  0  0
    4.8932   -5.3993   -5.3876 C   0  0  0  0  0  0  0  0  0  0  0  0
    4.2353   -4.4400   -6.1620 C   0  0  0  0  0  0  0  0  0  0  0  0
    3.4985   -3.4523   -5.5044 C   0  0  0  0  0  0  0  0  0  0  0  0
    2.7674   -2.3758   -6.0194 N   0  0  0  0  0  0  0  0  0  0  0  0
    2.5851   -2.0771   -7.3945 C   0  0  0  0  0  0  0  0  0  0  0  0
    2.0095   -3.0448   -8.2477 C   0  0  0  0  0  0  0  0  0  0  0  0
    1.8210   -2.7969   -9.6085 C   0  0  0  0  0  0  0  0  0  0  0  0
    2.2034   -1.5479  -10.0829 C   0  0  0  0  0  0  0  0  0  0  0  0
    2.0891   -1.1224  -11.3811 O   0  0  0  0  0  0  0  0  0  0  0  0
    2.5760    0.1483  -11.4196 C   0  0  0  0  0  0  0  0  0  0  0  0
    2.6028    0.8369  -12.5425 N   0  0  0  0  0  0  0  0  0  0  0  0
    3.1048    2.0434  -12.3823 C   0  0  0  0  0  0  0  0  0  0  0  0
    3.2148    2.9089  -13.4317 O   0  0  0  0  0  0  0  0  0  0  0  0
    3.7623    4.0593  -12.9370 C   0  0  0  0  0  0  0  0  0  0  0  0
    4.0352    5.2020  -13.6814 C   0  0  0  0  0  0  0  0  0  0  0  0
    4.5882    6.2849  -12.9981 C   0  0  0  0  0  0  0  0  0  0  0  0
    4.8562    6.2147  -11.6159 C   0  0  0  0  0  0  0  0  0  0  0  0
    5.4929    7.4032  -10.9393 C   0  0  1  0  0  0  0  0  0  0  0  0
    4.9649    8.5620  -11.3741 F   0  0  0  0  0  0  0  0  0  0  0  0
    5.3407    7.3650   -9.6040 F   0  0  0  0  0  0  0  0  0  0  0  0
    6.8167    7.4660  -11.1828 F   0  0  0  0  0  0  0  0  0  0  0  0
    4.5760    5.0588  -10.8823 C   0  0  0  0  0  0  0  0  0  0  0  0
    4.0205    3.9625  -11.5519 C   0  0  0  0  0  0  0  0  0  0  0  0
    3.5879    2.6284  -11.1782 C   0  0  0  0  0  0  0  0  0  0  0  0
    3.5435    1.8631  -10.0076 C   0  0  0  0  0  0  0  0  0  0  0  0
    3.0175    0.5734  -10.1333 C   0  0  0  0  0  0  0  0  0  0  0  0
    2.7678   -0.5548   -9.2543 C   0  0  0  0  0  0  0  0  0  0  0  0
    2.9728   -0.8274   -7.8964 C   0  0  0  0  0  0  0  0  0  0  0  0
   -0.9857    0.5238   -0.1737 H   0  0  0  0  0  0  0  0  0  0  0  0
   -1.0359   -0.9523   -1.1740 H   0  0  0  0  0  0  0  0  0  0  0  0
   -1.0494    0.6497   -1.9450 H   0  0  0  0  0  0  0  0  0  0  0  0
    1.1173    1.9689   -0.1077 H   0  0  0  0  0  0  0  0  0  0  0  0
    1.0987    2.1225   -1.8787 H   0  0  0  0  0  0  0  0  0  0  0  0
    2.5545    1.5123   -1.0603 H   0  0  0  0  0  0  0  0  0  0  0  0
    1.0463   -0.2455    1.0069 H   0  0  0  0  0  0  0  0  0  0  0  0
    2.5123   -0.7566    0.1455 H   0  0  0  0  0  0  0  0  0  0  0  0
    1.0447   -1.7680    0.0930 H   0  0  0  0  0  0  0  0  0  0  0  0
    0.3819    0.8778   -3.6998 H   0  0  0  0  0  0  0  0  0  0  0  0
    1.0936   -0.0421   -5.8610 H   0  0  0  0  0  0  0  0  0  0  0  0
    2.5262   -2.2211   -1.5822 H   0  0  0  0  0  0  0  0  0  0  0  0
    4.0507   -4.3579   -2.2495 H   0  0  0  0  0  0  0  0  0  0  0  0
    3.8023   -7.7798   -2.9742 H   0  0  0  0  0  0  0  0  0  0  0  0
    3.9435   -6.6180   -1.6363 H   0  0  0  0  0  0  0  0  0  0  0  0
    5.0120   -8.0394   -1.6893 H   0  0  0  0  0  0  0  0  0  0  0  0
    5.7004   -8.0304   -4.6833 H   0  0  0  0  0  0  0  0  0  0  0  0
    6.8511   -8.2175   -3.3445 H   0  0  0  0  0  0  0  0  0  0  0  0
    7.1371   -6.9785   -4.5848 H   0  0  0  0  0  0  0  0  0  0  0  0
    6.0506   -5.1029   -1.4688 H   0  0  0  0  0  0  0  0  0  0  0  0
    7.3149   -5.2163   -2.7132 H   0  0  0  0  0  0  0  0  0  0  0  0
    7.0831   -6.5469   -1.5479 H   0  0  0  0  0  0  0  0  0  0  0  0
    5.4637   -6.1643   -5.9140 H   0  0  0  0  0  0  0  0  0  0  0  0
    4.3061   -4.4686   -7.2506 H   0  0  0  0  0  0  0  0  0  0  0  0
    1.7021   -4.0021   -7.8232 H   0  0  0  0  0  0  0  0  0  0  0  0
    1.3798   -3.5416  -10.2726 H   0  0  0  0  0  0  0  0  0  0  0  0
    3.8183    5.2432  -14.7497 H   0  0  0  0  0  0  0  0  0  0  0  0
    4.8106    7.2065  -13.5393 H   0  0  0  0  0  0  0  0  0  0  0  0
    4.7825    5.0229   -9.8118 H   0  0  0  0  0  0  0  0  0  0  0  0
    3.8987    2.2512   -9.0503 H   0  0  0  0  0  0  0  0  0  0  0  0
    3.4320   -0.0936   -7.2317 H   0  0  0  0  0  0  0  0  0  0  0  0
  2  1  1  6
  1 46  1  0
  1 47  1  0
  1 48  1  0
  2  3  1  0
  2  4  1  0
  2  5  1  0
  3 49  1  0
  3 50  1  0
  3 51  1  0
  4 52  1  0
  4 53  1  0
  4 54  1  0
  5  6  2  0
  5 10  1  0
  6  7  1  0
  6 55  1  0
  7  8  2  0
  7 56  1  0
  8  9  1  0
  8 21  1  0
  9 10  2  0
  9 11  1  0
 10 57  1  0
 11 12  2  0
 11 20  1  0
 12 13  1  0
 12 58  1  0
 13 14  1  0
 13 18  2  0
 14 15  1  1
 14 16  1  0
 14 17  1  0
 15 59  1  0
 15 60  1  0
 15 61  1  0
 16 62  1  0
 16 63  1  0
 16 64  1  0
 17 65  1  0
 17 66  1  0
 17 67  1  0
 18 19  1  0
 18 68  1  0
 19 20  2  0
 19 69  1  0
 20 21  1  0
 21 22  1  0
 22 23  2  0
 22 45  1  0
 23 24  1  0
 23 70  1  0
 24 25  2  0
 24 71  1  0
 25 26  1  0
 25 44  1  0
 26 27  1  0
 27 28  1  0
 27 43  2  0
 28 29  2  0
 29 30  1  0
 29 41  1  0
 30 31  1  0
 31 32  1  0
 31 40  2  0
 32 33  2  0
 32 72  1  0
 33 34  1  0
 33 73  1  0
 34 35  1  0
 34 39  2  0
 35 36  1  6
 35 37  1  0
 35 38  1  0
 39 40  1  0
 39 74  1  0
 40 41  1  0
 41 42  2  0
 42 43  1  0
 42 75  1  0
 43 44  1  0
 44 45  2  0
 45 76  1  0
M  END

