
     RDKit          3D

120130  0  0  0  0  0  0  0  0999 V2000
    0.1822   -3.5800   -6.1831 C   0  0  0  0  0  0  0  0  0  0  0  0
   -0.3725   -2.8064   -5.0115 C   0  0  0  0  0  0  0  0  0  0  0  0
   -0.0778   -3.1747   -3.6902 C   0  0  0  0  0  0  0  0  0  0  0  0
   -0.5523   -2.4323   -2.6057 C   0  0  0  0  0  0  0  0  0  0  0  0
   -1.3510   -1.2921   -2.8013 C   0  0  0  0  0  0  0  0  0  0  0  0
   -1.9720   -0.4935   -1.6834 C   0  0  0  0  0  0  0  0  0  0  0  0
   -3.1208   -0.0334   -1.8801 O   0  0  0  0  0  0  0  0  0  0  0  0
   -1.2415   -0.2778   -0.4383 C   0  0  0  0  0  0  0  0  0  0  0  0
    0.1760   -0.3743   -0.3566 C   0  0  0  0  0  0  0  0  0  0  0  0
    0.9216   -0.0939    0.7868 C   0  0  0  0  0  0  0  0  0  0  0  0
    2.4018   -0.0138    0.6254 C   0  0  0  0  0  0  0  0  0  0  0  0
    3.1110   -0.9868   -0.1050 C   0  0  0  0  0  0  0  0  0  0  0  0
    4.4803   -0.8629   -0.3438 C   0  0  0  0  0  0  0  0  0  0  0  0
    5.1854    0.2415    0.1470 C   0  0  0  0  0  0  0  0  0  0  0  0
    6.5917    0.3827   -0.1156 N   0  0  0  0  0  0  0  0  0  0  0  0
    7.0057    1.0865   -1.2572 C   0  0  0  0  0  0  0  0  0  0  0  0
    6.0423    1.6431   -2.1294 C   0  0  0  0  0  0  0  0  0  0  0  0
    6.4211    2.3494   -3.2664 C   0  0  0  0  0  0  0  0  0  0  0  0
    7.7736    2.5210   -3.5673 C   0  0  0  0  0  0  0  0  0  0  0  0
    8.7242    1.9697   -2.7088 C   0  0  0  0  0  0  0  0  0  0  0  0
    8.3795    1.2503   -1.5540 C   0  0  0  0  0  0  0  0  0  0  0  0
    9.4920    0.6730   -0.6677 C   0  0  1  0  0  0  0  0  0  0  0  0
   10.3531   -0.3063   -1.5097 C   0  0  0  0  0  0  0  0  0  0  0  0
   10.3874    1.8333   -0.1569 C   0  0  0  0  0  0  0  0  0  0  0  0
    8.9108   -0.0788    0.5377 C   0  0  0  0  0  0  0  0  0  0  0  0
    9.7837   -0.6810    1.4574 C   0  0  0  0  0  0  0  0  0  0  0  0
    9.3341   -1.3770    2.5787 C   0  0  0  0  0  0  0  0  0  0  0  0
    7.9587   -1.4762    2.7986 C   0  0  0  0  0  0  0  0  0  0  0  0
    7.0635   -0.8911    1.9086 C   0  0  0  0  0  0  0  0  0  0  0  0
    7.5195   -0.1905    0.7692 C   0  0  0  0  0  0  0  0  0  0  0  0
    4.4986    1.2127    0.8869 C   0  0  0  0  0  0  0  0  0  0  0  0
    3.1300    1.0856    1.1206 C   0  0  0  0  0  0  0  0  0  0  0  0
    0.2324    0.2708    1.9979 C   0  0  0  0  0  0  0  0  0  0  0  0
    0.7924    0.4767    3.3429 C   0  0  0  0  0  0  0  0  0  0  0  0
    0.2292    1.2339    4.1501 O   0  0  0  0  0  0  0  0  0  0  0  0
    1.9857   -0.3015    3.8358 C   0  0  0  0  0  0  0  0  0  0  0  0
    2.3227   -1.5848    3.3795 C   0  0  0  0  0  0  0  0  0  0  0  0
    3.3684   -2.3035    3.9658 C   0  0  0  0  0  0  0  0  0  0  0  0
    4.1166   -1.7675    5.0244 C   0  0  0  0  0  0  0  0  0  0  0  0
    5.2273   -2.5525    5.6801 C   0  0  0  0  0  0  0  0  0  0  0  0
    3.7736   -0.4831    5.4826 C   0  0  0  0  0  0  0  0  0  0  0  0
    2.7223    0.2285    4.9105 C   0  0  0  0  0  0  0  0  0  0  0  0
   -1.1741    0.4790    1.8891 C   0  0  0  0  0  0  0  0  0  0  0  0
   -1.9016    0.2117    0.7504 C   0  0  0  0  0  0  0  0  0  0  0  0
   -3.3850    0.3902    0.7726 C   0  0  0  0  0  0  0  0  0  0  0  0
   -4.2398   -0.7212    0.8497 C   0  0  0  0  0  0  0  0  0  0  0  0
   -5.6183   -0.5791    0.7146 C   0  0  0  0  0  0  0  0  0  0  0  0
   -6.1476    0.6980    0.5254 C   0  0  0  0  0  0  0  0  0  0  0  0
   -7.5562    0.8390    0.1750 N   0  0  0  0  0  0  0  0  0  0  0  0
   -8.4945    1.0644    1.1699 C   0  0  0  0  0  0  0  0  0  0  0  0
   -8.0637    1.1447    2.5224 C   0  0  0  0  0  0  0  0  0  0  0  0
   -8.9778    1.3697    3.5343 C   0  0  0  0  0  0  0  0  0  0  0  0
  -10.3390    1.5184    3.2254 C   0  0  0  0  0  0  0  0  0  0  0  0
  -10.7653    1.4377    1.8989 C   0  0  0  0  0  0  0  0  0  0  0  0
   -9.8734    1.2115    0.8458 C   0  0  0  0  0  0  0  0  0  0  0  0
  -10.3849    1.1276   -0.5875 C   0  0  1  0  0  0  0  0  0  0  0  0
  -11.4132   -0.0358   -0.6862 C   0  0  0  0  0  0  0  0  0  0  0  0
  -11.0788    2.4714   -0.9532 C   0  0  0  0  0  0  0  0  0  0  0  0
   -9.2538    0.8712   -1.5778 C   0  0  0  0  0  0  0  0  0  0  0  0
   -9.5316    0.7612   -2.9429 C   0  0  0  0  0  0  0  0  0  0  0  0
   -8.5267    0.5287   -3.8843 C   0  0  0  0  0  0  0  0  0  0  0  0
   -7.1916    0.3999   -3.4700 C   0  0  0  0  0  0  0  0  0  0  0  0
   -6.8687    0.5034   -2.1303 C   0  0  0  0  0  0  0  0  0  0  0  0
   -7.8945    0.7388   -1.1679 C   0  0  0  0  0  0  0  0  0  0  0  0
   -5.3345    1.8310    0.5525 C   0  0  0  0  0  0  0  0  0  0  0  0
   -3.9571    1.6683    0.6916 C   0  0  0  0  0  0  0  0  0  0  0  0
   -1.6747   -0.9444   -4.1257 C   0  0  0  0  0  0  0  0  0  0  0  0
   -1.1866   -1.6770   -5.2056 C   0  0  0  0  0  0  0  0  0  0  0  0
   -0.5123   -3.5765   -7.0381 H   0  0  0  0  0  0  0  0  0  0  0  0
    1.1325   -3.1418   -6.5370 H   0  0  0  0  0  0  0  0  0  0  0  0
    0.3891   -4.6280   -5.9161 H   0  0  0  0  0  0  0  0  0  0  0  0
    0.5311   -4.0649   -3.5042 H   0  0  0  0  0  0  0  0  0  0  0  0
   -0.3189   -2.7608   -1.5907 H   0  0  0  0  0  0  0  0  0  0  0  0
    0.7236   -0.5781   -1.2772 H   0  0  0  0  0  0  0  0  0  0  0  0
    2.5793   -1.8611   -0.4874 H   0  0  0  0  0  0  0  0  0  0  0  0
    5.0139   -1.6269   -0.9140 H   0  0  0  0  0  0  0  0  0  0  0  0
    4.9839    1.5176   -1.9069 H   0  0  0  0  0  0  0  0  0  0  0  0
    5.6487    2.7667   -3.9181 H   0  0  0  0  0  0  0  0  0  0  0  0
    8.0868    3.0742   -4.4557 H   0  0  0  0  0  0  0  0  0  0  0  0
    9.7818    2.1043   -2.9470 H   0  0  0  0  0  0  0  0  0  0  0  0
   11.1735   -0.7309   -0.9110 H   0  0  0  0  0  0  0  0  0  0  0  0
   10.8029    0.2016   -2.3767 H   0  0  0  0  0  0  0  0  0  0  0  0
    9.7395   -1.1396   -1.8848 H   0  0  0  0  0  0  0  0  0  0  0  0
   11.2062    1.4552    0.4742 H   0  0  0  0  0  0  0  0  0  0  0  0
   10.8404    2.3855   -0.9946 H   0  0  0  0  0  0  0  0  0  0  0  0
    9.7982    2.5451    0.4410 H   0  0  0  0  0  0  0  0  0  0  0  0
   10.8603   -0.6020    1.2897 H   0  0  0  0  0  0  0  0  0  0  0  0
   10.0481   -1.8316    3.2693 H   0  0  0  0  0  0  0  0  0  0  0  0
    7.5712   -2.0108    3.6691 H   0  0  0  0  0  0  0  0  0  0  0  0
    5.9942   -0.9740    2.0973 H   0  0  0  0  0  0  0  0  0  0  0  0
    5.0453    2.0780    1.2683 H   0  0  0  0  0  0  0  0  0  0  0  0
    2.6075    1.8631    1.6810 H   0  0  0  0  0  0  0  0  0  0  0  0
    1.7497   -2.0385    2.5688 H   0  0  0  0  0  0  0  0  0  0  0  0
    3.6039   -3.3058    3.5948 H   0  0  0  0  0  0  0  0  0  0  0  0
    4.8942   -2.9974    6.6347 H   0  0  0  0  0  0  0  0  0  0  0  0
    5.5749   -3.3772    5.0391 H   0  0  0  0  0  0  0  0  0  0  0  0
    6.0931   -1.9113    5.9110 H   0  0  0  0  0  0  0  0  0  0  0  0
    4.3392   -0.0393    6.3082 H   0  0  0  0  0  0  0  0  0  0  0  0
    2.4380    1.2118    5.2904 H   0  0  0  0  0  0  0  0  0  0  0  0
   -1.6783    0.8254    2.7935 H   0  0  0  0  0  0  0  0  0  0  0  0
   -3.8081   -1.7183    0.9526 H   0  0  0  0  0  0  0  0  0  0  0  0
   -6.2720   -1.4545    0.7071 H   0  0  0  0  0  0  0  0  0  0  0  0
   -7.0069    1.0266    2.7503 H   0  0  0  0  0  0  0  0  0  0  0  0
   -8.6357    1.4296    4.5688 H   0  0  0  0  0  0  0  0  0  0  0  0
  -11.0670    1.6963    4.0192 H   0  0  0  0  0  0  0  0  0  0  0  0
  -11.8280    1.5548    1.6830 H   0  0  0  0  0  0  0  0  0  0  0  0
  -10.9463   -0.9979   -0.4285 H   0  0  0  0  0  0  0  0  0  0  0  0
  -12.2583    0.1294   -0.0030 H   0  0  0  0  0  0  0  0  0  0  0  0
  -11.8179   -0.1134   -1.7052 H   0  0  0  0  0  0  0  0  0  0  0  0
  -11.4801    2.4370   -1.9759 H   0  0  0  0  0  0  0  0  0  0  0  0
  -10.3708    3.3110   -0.8910 H   0  0  0  0  0  0  0  0  0  0  0  0
  -11.9163    2.6773   -0.2716 H   0  0  0  0  0  0  0  0  0  0  0  0
  -10.5611    0.8591   -3.2901 H   0  0  0  0  0  0  0  0  0  0  0  0
   -8.7848    0.4480   -4.9420 H   0  0  0  0  0  0  0  0  0  0  0  0
   -6.3973    0.2168   -4.1948 H   0  0  0  0  0  0  0  0  0  0  0  0
   -5.8285    0.4002   -1.8233 H   0  0  0  0  0  0  0  0  0  0  0  0
   -5.7676    2.8249    0.4161 H   0  0  0  0  0  0  0  0  0  0  0  0
   -3.3038    2.5421    0.6658 H   0  0  0  0  0  0  0  0  0  0  0  0
   -2.3246   -0.0816   -4.2847 H   0  0  0  0  0  0  0  0  0  0  0  0
   -1.4430   -1.3709   -6.2249 H   0  0  0  0  0  0  0  0  0  0  0  0
  1  2  1  0
  1 69  1  0
  1 70  1  0
  1 71  1  0
  2  3  2  0
  2 68  1  0
  3  4  1  0
  3 72  1  0
  4  5  2  0
  4 73  1  0
  5  6  1  0
  5 67  1  0
  6  7  2  0
  6  8  1  0
  8  9  2  0
  8 44  1  0
  9 10  1  0
  9 74  1  0
 10 11  1  0
 10 33  2  0
 11 12  2  0
 11 32  1  0
 12 13  1  0
 12 75  1  0
 13 14  2  0
 13 76  1  0
 14 15  1  0
 14 31  1  0
 15 16  1  0
 15 30  1  0
 16 17  2  0
 16 21  1  0
 17 18  1  0
 17 77  1  0
 18 19  2  0
 18 78  1  0
 19 20  1  0
 19 79  1  0
 20 21  2  0
 20 80  1  0
 21 22  1  0
 22 23  1  6
 22 24  1  0
 22 25  1  0
 23 81  1  0
 23 82  1  0
 23 83  1  0
 24 84  1  0
 24 85  1  0
 24 86  1  0
 25 26  2  0
 25 30  1  0
 26 27  1  0
 26 87  1  0
 27 28  2  0
 27 88  1  0
 28 29  1  0
 28 89  1  0
 29 30  2  0
 29 90  1  0
 31 32  2  0
 31 91  1  0
 32 92  1  0
 33 34  1  0
 33 43  1  0
 34 35  2  0
 34 36  1  0
 36 37  2  0
 36 42  1  0
 37 38  1  0
 37 93  1  0
 38 39  2  0
 38 94  1  0
 39 40  1  0
 39 41  1  0
 40 95  1  0
 40 96  1  0
 40 97  1  0
 41 42  2  0
 41 98  1  0
 42 99  1  0
 43 44  2  0
 43100  1  0
 44 45  1  0
 45 46  2  0
 45 66  1  0
 46 47  1  0
 46101  1  0
 47 48  2  0
 47102  1  0
 48 49  1  0
 48 65  1  0
 49 50  1  0
 49 64  1  0
 50 51  2  0
 50 55  1  0
 51 52  1  0
 51103  1  0
 52 53  2  0
 52104  1  0
 53 54  1  0
 53105  1  0
 54 55  2  0
 54106  1  0
 55 56  1  0
 56 57  1  6
 56 58  1  0
 56 59  1  0
 57107  1  0
 57108  1  0
 57109  1  0
 58110  1  0
 58111  1  0
 58112  1  0
 59 60  2  0
 59 64  1  0
 60 61  1  0
 60113  1  0
 61 62  2  0
 61114  1  0
 62 63  1  0
 62115  1  0
 63 64  2  0
 63116  1  0
 65 66  2  0
 65117  1  0
 66118  1  0
 67 68  2  0
 67119  1  0
 68120  1  0
M  END

