
     RDKit          3D

 82 89  0  0  0  0  0  0  0  0999 V2000
    9.0444   -0.4070    0.9927 C   0  0  0  0  0  0  0  0  0  0  0  0
    7.7962    0.4834    0.7526 C   0  0  2  0  0  0  0  0  0  0  0  0
    8.1771    1.9725    0.9678 C   0  0  0  0  0  0  0  0  0  0  0  0
    6.7043    0.0948    1.7595 C   0  0  0  0  0  0  0  0  0  0  0  0
    6.9639    0.2084    3.1341 C   0  0  0  0  0  0  0  0  0  0  0  0
    6.0264   -0.1283    4.1100 C   0  0  0  0  0  0  0  0  0  0  0  0
    4.7763   -0.5988    3.7056 C   0  0  0  0  0  0  0  0  0  0  0  0
    4.4836   -0.7238    2.3507 C   0  0  0  0  0  0  0  0  0  0  0  0
    5.4336   -0.3814    1.3629 C   0  0  0  0  0  0  0  0  0  0  0  0
    5.1091   -0.5165    0.0012 N   0  0  0  0  0  0  0  0  0  0  0  0
    3.8072   -0.9904   -0.3628 C   0  0  0  0  0  0  0  0  0  0  0  0
    2.7563   -0.0847   -0.5521 C   0  0  0  0  0  0  0  0  0  0  0  0
    1.4846   -0.5447   -0.9005 C   0  0  0  0  0  0  0  0  0  0  0  0
    1.2470   -1.9187   -1.0765 C   0  0  0  0  0  0  0  0  0  0  0  0
   -0.0727   -2.4754   -1.5372 C   0  0  0  0  0  0  0  0  0  0  0  0
   -0.1016   -3.5128   -2.1765 O   0  0  0  0  0  0  0  0  0  0  0  0
   -1.3572   -1.7592   -1.2194 C   0  0  0  0  0  0  0  0  0  0  0  0
   -1.5482   -1.0016   -0.0513 C   0  0  0  0  0  0  0  0  0  0  0  0
   -2.7902   -0.4255    0.2238 C   0  0  0  0  0  0  0  0  0  0  0  0
   -3.8557   -0.5850   -0.6706 C   0  0  0  0  0  0  0  0  0  0  0  0
   -5.1243    0.0208   -0.3948 N   0  0  0  0  0  0  0  0  0  0  0  0
   -5.3688    1.3306   -0.8448 C   0  0  0  0  0  0  0  0  0  0  0  0
   -4.3725    2.0246   -1.5668 C   0  0  0  0  0  0  0  0  0  0  0  0
   -4.5858    3.3219   -2.0232 C   0  0  0  0  0  0  0  0  0  0  0  0
   -5.8008    3.9605   -1.7709 C   0  0  0  0  0  0  0  0  0  0  0  0
   -6.7845    3.2737   -1.0601 C   0  0  0  0  0  0  0  0  0  0  0  0
   -6.6050    1.9655   -0.5848 C   0  0  0  0  0  0  0  0  0  0  0  0
   -7.7413    1.2827    0.1899 C   0  0  1  0  0  0  0  0  0  0  0  0
   -8.0655    2.1208    1.4552 C   0  0  0  0  0  0  0  0  0  0  0  0
   -8.9993    1.2107   -0.7161 C   0  0  0  0  0  0  0  0  0  0  0  0
   -7.3510   -0.1394    0.6179 C   0  0  0  0  0  0  0  0  0  0  0  0
   -8.2712   -0.9195    1.3352 C   0  0  0  0  0  0  0  0  0  0  0  0
   -7.9909   -2.2179    1.7594 C   0  0  0  0  0  0  0  0  0  0  0  0
   -6.7433   -2.7675    1.4608 C   0  0  0  0  0  0  0  0  0  0  0  0
   -5.8056   -2.0227    0.7518 C   0  0  0  0  0  0  0  0  0  0  0  0
   -6.0915   -0.7082    0.3210 C   0  0  0  0  0  0  0  0  0  0  0  0
   -3.6737   -1.3466   -1.8346 C   0  0  0  0  0  0  0  0  0  0  0  0
   -2.4411   -1.9393   -2.0971 C   0  0  0  0  0  0  0  0  0  0  0  0
    2.3141   -2.8191   -0.9078 C   0  0  0  0  0  0  0  0  0  0  0  0
    3.5778   -2.3628   -0.5417 C   0  0  0  0  0  0  0  0  0  0  0  0
    6.0263   -0.1870   -1.0139 C   0  0  0  0  0  0  0  0  0  0  0  0
    5.6595   -0.3355   -2.3698 C   0  0  0  0  0  0  0  0  0  0  0  0
    6.5460   -0.0170   -3.3943 C   0  0  0  0  0  0  0  0  0  0  0  0
    7.8229    0.4578   -3.0913 C   0  0  0  0  0  0  0  0  0  0  0  0
    8.1838    0.6035   -1.7523 C   0  0  0  0  0  0  0  0  0  0  0  0
    7.3165    0.2933   -0.6933 C   0  0  0  0  0  0  0  0  0  0  0  0
    9.8587   -0.1459    0.3000 H   0  0  0  0  0  0  0  0  0  0  0  0
    9.4286   -0.2863    2.0170 H   0  0  0  0  0  0  0  0  0  0  0  0
    8.7999   -1.4699    0.8446 H   0  0  0  0  0  0  0  0  0  0  0  0
    8.9759    2.2832    0.2773 H   0  0  0  0  0  0  0  0  0  0  0  0
    7.3080    2.6263    0.7980 H   0  0  0  0  0  0  0  0  0  0  0  0
    8.5383    2.1471    1.9925 H   0  0  0  0  0  0  0  0  0  0  0  0
    7.9411    0.5758    3.4551 H   0  0  0  0  0  0  0  0  0  0  0  0
    6.2714   -0.0245    5.1693 H   0  0  0  0  0  0  0  0  0  0  0  0
    4.0192   -0.8728    4.4448 H   0  0  0  0  0  0  0  0  0  0  0  0
    3.5037   -1.0932    2.0516 H   0  0  0  0  0  0  0  0  0  0  0  0
    2.9451    0.9837   -0.4282 H   0  0  0  0  0  0  0  0  0  0  0  0
    0.6820    0.1768   -1.0623 H   0  0  0  0  0  0  0  0  0  0  0  0
   -0.7328   -0.8805    0.6640 H   0  0  0  0  0  0  0  0  0  0  0  0
   -2.9441    0.1526    1.1373 H   0  0  0  0  0  0  0  0  0  0  0  0
   -3.4199    1.5392   -1.7737 H   0  0  0  0  0  0  0  0  0  0  0  0
   -3.7946    3.8312   -2.5794 H   0  0  0  0  0  0  0  0  0  0  0  0
   -5.9835    4.9785   -2.1220 H   0  0  0  0  0  0  0  0  0  0  0  0
   -7.7340    3.7773   -0.8661 H   0  0  0  0  0  0  0  0  0  0  0  0
   -8.3701    3.1441    1.1880 H   0  0  0  0  0  0  0  0  0  0  0  0
   -7.1863    2.1891    2.1139 H   0  0  0  0  0  0  0  0  0  0  0  0
   -8.8876    1.6693    2.0309 H   0  0  0  0  0  0  0  0  0  0  0  0
   -9.8448    0.7456   -0.1868 H   0  0  0  0  0  0  0  0  0  0  0  0
   -9.3194    2.2147   -1.0338 H   0  0  0  0  0  0  0  0  0  0  0  0
   -8.7958    0.6168   -1.6200 H   0  0  0  0  0  0  0  0  0  0  0  0
   -9.2487   -0.4939    1.5725 H   0  0  0  0  0  0  0  0  0  0  0  0
   -8.7375   -2.7897    2.3151 H   0  0  0  0  0  0  0  0  0  0  0  0
   -6.4915   -3.7824    1.7790 H   0  0  0  0  0  0  0  0  0  0  0  0
   -4.8364   -2.4655    0.5271 H   0  0  0  0  0  0  0  0  0  0  0  0
   -4.5113   -1.4717   -2.5240 H   0  0  0  0  0  0  0  0  0  0  0  0
   -2.2946   -2.5551   -2.9865 H   0  0  0  0  0  0  0  0  0  0  0  0
    2.1296   -3.8821   -1.0747 H   0  0  0  0  0  0  0  0  0  0  0  0
    4.4032   -3.0632   -0.3973 H   0  0  0  0  0  0  0  0  0  0  0  0
    4.6674   -0.7059   -2.6238 H   0  0  0  0  0  0  0  0  0  0  0  0
    6.2312   -0.1434   -4.4333 H   0  0  0  0  0  0  0  0  0  0  0  0
    8.5303    0.7116   -3.8838 H   0  0  0  0  0  0  0  0  0  0  0  0
    9.1845    0.9744   -1.5202 H   0  0  0  0  0  0  0  0  0  0  0  0
  2  1  1  1
  1 47  1  0
  1 48  1  0
  1 49  1  0
  2  3  1  0
  2  4  1  0
  2 46  1  0
  3 50  1  0
  3 51  1  0
  3 52  1  0
  4  5  1  0
  4  9  2  0
  5  6  2  0
  5 53  1  0
  6  7  1  0
  6 54  1  0
  7  8  2  0
  7 55  1  0
  8  9  1  0
  8 56  1  0
  9 10  1  0
 10 11  1  0
 10 41  1  0
 11 12  2  0
 11 40  1  0
 12 13  1  0
 12 57  1  0
 13 14  2  0
 13 58  1  0
 14 15  1  0
 14 39  1  0
 15 16  2  0
 15 17  1  0
 17 18  2  0
 17 38  1  0
 18 19  1  0
 18 59  1  0
 19 20  2  0
 19 60  1  0
 20 21  1  0
 20 37  1  0
 21 22  1  0
 21 36  1  0
 22 23  2  0
 22 27  1  0
 23 24  1  0
 23 61  1  0
 24 25  2  0
 24 62  1  0
 25 26  1  0
 25 63  1  0
 26 27  2  0
 26 64  1  0
 27 28  1  0
 28 29  1  1
 28 30  1  0
 28 31  1  0
 29 65  1  0
 29 66  1  0
 29 67  1  0
 30 68  1  0
 30 69  1  0
 30 70  1  0
 31 32  2  0
 31 36  1  0
 32 33  1  0
 32 71  1  0
 33 34  2  0
 33 72  1  0
 34 35  1  0
 34 73  1  0
 35 36  2  0
 35 74  1  0
 37 38  2  0
 37 75  1  0
 38 76  1  0
 39 40  2  0
 39 77  1  0
 40 78  1  0
 41 42  1  0
 41 46  2  0
 42 43  2  0
 42 79  1  0
 43 44  1  0
 43 80  1  0
 44 45  2  0
 44 81  1  0
 45 46  1  0
 45 82  1  0
M  END

