
     RDKit          3D

 43 46  0  0  0  0  0  0  0  0999 V2000
    1.8910    0.7359    0.6172 C   0  0  0  0  0  0  0  0  0  0  0  0
    2.6962    1.2480   -0.4256 O   0  0  0  0  0  0  0  0  0  0  0  0
    3.1597    0.4038   -1.3611 C   0  0  0  0  0  0  0  0  0  0  0  0
    3.9113    0.7737   -2.4532 C   0  0  0  0  0  0  0  0  0  0  0  0
    4.2629   -0.3377   -3.2607 C   0  0  0  0  0  0  0  0  0  0  0  0
    3.8173   -1.5602   -2.7970 C   0  0  0  0  0  0  0  0  0  0  0  0
    3.9418   -2.8331   -3.5321 C   0  0  0  0  0  0  0  0  0  0  0  0
    4.1142   -2.6975   -4.8340 N   0  0  0  0  0  0  0  0  0  0  0  0
    4.1968   -3.7981   -5.6194 C   0  0  0  0  0  0  0  0  0  0  0  0
    4.3862   -3.6696   -7.0214 C   0  0  0  0  0  0  0  0  0  0  0  0
    4.4175   -4.7942   -7.8221 C   0  0  0  0  0  0  0  0  0  0  0  0
    4.2595   -6.0855   -7.2532 C   0  0  0  0  0  0  0  0  0  0  0  0
    4.0812   -6.2392   -5.8926 C   0  0  0  0  0  0  0  0  0  0  0  0
    4.0555   -5.0996   -5.0421 C   0  0  0  0  0  0  0  0  0  0  0  0
    3.9293   -5.2396   -3.7042 N   0  0  0  0  0  0  0  0  0  0  0  0
    3.9069   -4.1659   -2.9241 C   0  0  0  0  0  0  0  0  0  0  0  0
    3.8818   -4.3642   -1.4820 C   0  0  0  0  0  0  0  0  0  0  0  0
    3.7363   -5.6087   -0.9344 C   0  0  0  0  0  0  0  0  0  0  0  0
    3.7334   -5.9162    0.3830 N   0  0  0  0  0  0  0  0  0  0  0  0
    3.8955   -4.9291    1.4459 C   0  0  0  0  0  0  0  0  0  0  0  0
    3.9822   -5.7729    2.7269 C   0  0  0  0  0  0  0  0  0  0  0  0
    3.1998   -7.0476    2.3715 C   0  0  0  0  0  0  0  0  0  0  0  0
    3.5674   -7.2742    0.9012 C   0  0  0  0  0  0  0  0  0  0  0  0
    2.8953   -1.3297   -1.3112 S   0  0  0  0  0  0  0  0  0  0  0  0
    1.6113    1.5881    1.2501 H   0  0  0  0  0  0  0  0  0  0  0  0
    2.4441   -0.0026    1.2257 H   0  0  0  0  0  0  0  0  0  0  0  0
    0.9761    0.2593    0.2214 H   0  0  0  0  0  0  0  0  0  0  0  0
    4.1877    1.8093   -2.6505 H   0  0  0  0  0  0  0  0  0  0  0  0
    4.8244   -0.2683   -4.1919 H   0  0  0  0  0  0  0  0  0  0  0  0
    4.4939   -2.6632   -7.4318 H   0  0  0  0  0  0  0  0  0  0  0  0
    4.5601   -4.6946   -8.9012 H   0  0  0  0  0  0  0  0  0  0  0  0
    4.2831   -6.9647   -7.9026 H   0  0  0  0  0  0  0  0  0  0  0  0
    3.9668   -7.2231   -5.4322 H   0  0  0  0  0  0  0  0  0  0  0  0
    4.0288   -3.5016   -0.8362 H   0  0  0  0  0  0  0  0  0  0  0  0
    3.6078   -6.4544   -1.6169 H   0  0  0  0  0  0  0  0  0  0  0  0
    3.0326   -4.2353    1.4596 H   0  0  0  0  0  0  0  0  0  0  0  0
    4.7975   -4.3139    1.2802 H   0  0  0  0  0  0  0  0  0  0  0  0
    3.5823   -5.2474    3.6064 H   0  0  0  0  0  0  0  0  0  0  0  0
    5.0340   -6.0242    2.9422 H   0  0  0  0  0  0  0  0  0  0  0  0
    2.1156   -6.8679    2.4645 H   0  0  0  0  0  0  0  0  0  0  0  0
    3.4529   -7.9068    3.0101 H   0  0  0  0  0  0  0  0  0  0  0  0
    2.7910   -7.8178    0.3391 H   0  0  0  0  0  0  0  0  0  0  0  0
    4.5078   -7.8536    0.8128 H   0  0  0  0  0  0  0  0  0  0  0  0
  1  2  1  0
  1 25  1  0
  1 26  1  0
  1 27  1  0
  2  3  1  0
  3  4  2  0
  3 24  1  0
  4  5  1  0
  4 28  1  0
  5  6  2  0
  5 29  1  0
  6  7  1  0
  6 24  1  0
  7  8  2  0
  7 16  1  0
  8  9  1  0
  9 10  2  0
  9 14  1  0
 10 11  1  0
 10 30  1  0
 11 12  2  0
 11 31  1  0
 12 13  1  0
 12 32  1  0
 13 14  2  0
 13 33  1  0
 14 15  1  0
 15 16  2  0
 16 17  1  0
 17 18  2  0
 17 34  1  0
 18 19  1  0
 18 35  1  0
 19 20  1  0
 19 23  1  0
 20 21  1  0
 20 36  1  0
 20 37  1  0
 21 22  1  0
 21 38  1  0
 21 39  1  0
 22 23  1  0
 22 40  1  0
 22 41  1  0
 23 42  1  0
 23 43  1  0
M  END

