
     RDKit          3D

 97104  0  0  0  0  0  0  0  0999 V2000
    2.0567    0.6258    0.6530 C   0  0  0  0  0  0  0  0  0  0  0  0
    3.3392    0.2706    0.1950 O   0  0  0  0  0  0  0  0  0  0  0  0
    3.6550   -1.0380   -0.0134 C   0  0  0  0  0  0  0  0  0  0  0  0
    2.7126   -2.0668    0.1347 C   0  0  0  0  0  0  0  0  0  0  0  0
    3.0886   -3.4040   -0.0838 C   0  0  0  0  0  0  0  0  0  0  0  0
    4.4467   -3.6897   -0.4053 C   0  0  0  0  0  0  0  0  0  0  0  0
    5.3561   -2.6675   -0.5921 C   0  0  0  0  0  0  0  0  0  0  0  0
    4.9990   -1.3080   -0.4099 C   0  0  0  0  0  0  0  0  0  0  0  0
    6.0115   -0.2564   -0.6225 C   0  0  0  0  0  0  0  0  0  0  0  0
    6.9997   -0.4112   -1.6243 C   0  0  0  0  0  0  0  0  0  0  0  0
    7.9963    0.5283   -1.8416 C   0  0  0  0  0  0  0  0  0  0  0  0
    8.0771    1.7050   -1.0495 C   0  0  0  0  0  0  0  0  0  0  0  0
    9.0634    2.6444   -1.2532 N   0  0  0  0  0  0  0  0  0  0  0  0
    9.1185    3.8370   -0.4290 C   0  0  0  0  0  0  0  0  0  0  0  0
   10.0684    2.4389   -2.2795 C   0  0  0  0  0  0  0  0  0  0  0  0
    7.0924    1.8668   -0.0376 C   0  0  0  0  0  0  0  0  0  0  0  0
    6.0973    0.9213    0.1586 C   0  0  0  0  0  0  0  0  0  0  0  0
    4.6722   -5.1795   -0.4021 C   0  0  0  0  0  0  0  0  0  0  0  0
    3.3183   -5.7131   -0.0110 C   0  0  0  0  0  0  0  0  0  0  0  0
    2.9660   -7.0210    0.3055 C   0  0  0  0  0  0  0  0  0  0  0  0
    1.6363   -7.3181    0.7411 C   0  0  0  0  0  0  0  0  0  0  0  0
    0.6695   -6.3193    0.7570 C   0  0  0  0  0  0  0  0  0  0  0  0
    0.9893   -4.9969    0.3583 C   0  0  0  0  0  0  0  0  0  0  0  0
    2.3645   -4.6678    0.0701 C   0  0  0  0  0  0  0  0  0  0  0  0
   -0.2700   -4.2578    0.2504 C   0  0  0  0  0  0  0  0  0  0  0  0
   -0.5867   -3.0035   -0.3003 C   0  0  0  0  0  0  0  0  0  0  0  0
   -1.9169   -2.5591   -0.3196 C   0  0  0  0  0  0  0  0  0  0  0  0
   -2.2790   -1.3787   -0.8960 O   0  0  0  0  0  0  0  0  0  0  0  0
   -1.3531   -0.6609   -1.6767 C   0  0  0  0  0  0  0  0  0  0  0  0
   -2.9752   -3.3450    0.2286 C   0  0  0  0  0  0  0  0  0  0  0  0
   -4.3821   -2.9035    0.2425 C   0  0  0  0  0  0  0  0  0  0  0  0
   -5.4340   -3.8378    0.0893 C   0  0  0  0  0  0  0  0  0  0  0  0
   -6.7705   -3.4708    0.1358 C   0  0  0  0  0  0  0  0  0  0  0  0
   -7.1510   -2.1189    0.3497 C   0  0  0  0  0  0  0  0  0  0  0  0
   -8.4752   -1.7431    0.4030 N   0  0  0  0  0  0  0  0  0  0  0  0
   -8.8327   -0.3534    0.6152 C   0  0  0  0  0  0  0  0  0  0  0  0
   -9.5232   -2.7362    0.2583 C   0  0  0  0  0  0  0  0  0  0  0  0
   -6.1016   -1.1733    0.5053 C   0  0  0  0  0  0  0  0  0  0  0  0
   -4.7706   -1.5578    0.4475 C   0  0  0  0  0  0  0  0  0  0  0  0
   -2.6324   -4.6269    0.7255 C   0  0  0  0  0  0  0  0  0  0  0  0
   -1.3296   -5.0854    0.7206 C   0  0  0  0  0  0  0  0  0  0  0  0
   -0.7918   -6.4397    1.1044 C   0  0  0  0  0  0  0  0  0  0  0  0
    1.5621   -8.7448    1.0590 C   0  0  0  0  0  0  0  0  0  0  0  0
    0.6207   -9.4223    1.4690 O   0  0  0  0  0  0  0  0  0  0  0  0
    2.8539   -9.2460    0.7924 N   0  0  0  0  0  0  0  0  0  0  0  0
    3.2265  -10.6297    1.0150 C   0  0  0  0  0  0  0  0  0  0  0  0
    2.6910  -11.6080   -0.0419 C   0  0  0  0  0  0  0  0  0  0  0  0
    3.1400  -11.3716   -1.4951 C   0  0  1  0  0  0  0  0  0  0  0  0
    4.6635  -11.4400   -1.6680 C   0  0  0  0  0  0  0  0  0  0  0  0
    2.4299  -12.3589   -2.4312 C   0  0  0  0  0  0  0  0  0  0  0  0
    3.7536   -8.2527    0.3489 C   0  0  0  0  0  0  0  0  0  0  0  0
    4.9401   -8.4450    0.0804 O   0  0  0  0  0  0  0  0  0  0  0  0
    2.0634    1.7164    0.7849 H   0  0  0  0  0  0  0  0  0  0  0  0
    1.8125    0.1461    1.6172 H   0  0  0  0  0  0  0  0  0  0  0  0
    1.2729    0.3620   -0.0788 H   0  0  0  0  0  0  0  0  0  0  0  0
    1.7026   -1.8335    0.4599 H   0  0  0  0  0  0  0  0  0  0  0  0
    6.3954   -2.9105   -0.8255 H   0  0  0  0  0  0  0  0  0  0  0  0
    6.9665   -1.2880   -2.2740 H   0  0  0  0  0  0  0  0  0  0  0  0
    8.7126    0.3501   -2.6427 H   0  0  0  0  0  0  0  0  0  0  0  0
    8.1941    4.4361   -0.5111 H   0  0  0  0  0  0  0  0  0  0  0  0
    9.9570    4.4655   -0.7526 H   0  0  0  0  0  0  0  0  0  0  0  0
    9.2676    3.5957    0.6391 H   0  0  0  0  0  0  0  0  0  0  0  0
   10.6554    1.5195   -2.1039 H   0  0  0  0  0  0  0  0  0  0  0  0
   10.7635    3.2873   -2.2842 H   0  0  0  0  0  0  0  0  0  0  0  0
    9.6196    2.3626   -3.2861 H   0  0  0  0  0  0  0  0  0  0  0  0
    7.1097    2.7404    0.6131 H   0  0  0  0  0  0  0  0  0  0  0  0
    5.3719    1.0853    0.9530 H   0  0  0  0  0  0  0  0  0  0  0  0
    5.4608   -5.4919    0.3028 H   0  0  0  0  0  0  0  0  0  0  0  0
    4.9841   -5.5729   -1.3861 H   0  0  0  0  0  0  0  0  0  0  0  0
    0.1928   -2.4007   -0.7583 H   0  0  0  0  0  0  0  0  0  0  0  0
   -1.9026    0.1828   -2.1161 H   0  0  0  0  0  0  0  0  0  0  0  0
   -0.9320   -1.2812   -2.4872 H   0  0  0  0  0  0  0  0  0  0  0  0
   -0.5196   -0.2630   -1.0709 H   0  0  0  0  0  0  0  0  0  0  0  0
   -5.1943   -4.8854   -0.1024 H   0  0  0  0  0  0  0  0  0  0  0  0
   -7.5259   -4.2424   -0.0071 H   0  0  0  0  0  0  0  0  0  0  0  0
   -8.4560    0.0278    1.5817 H   0  0  0  0  0  0  0  0  0  0  0  0
   -9.9250   -0.2540    0.6168 H   0  0  0  0  0  0  0  0  0  0  0  0
   -8.4338    0.3007   -0.1807 H   0  0  0  0  0  0  0  0  0  0  0  0
   -9.4775   -3.2451   -0.7213 H   0  0  0  0  0  0  0  0  0  0  0  0
  -10.5020   -2.2476    0.3383 H   0  0  0  0  0  0  0  0  0  0  0  0
   -9.4662   -3.5130    1.0419 H   0  0  0  0  0  0  0  0  0  0  0  0
   -6.3293   -0.1229    0.6835 H   0  0  0  0  0  0  0  0  0  0  0  0
   -4.0019   -0.7982    0.5801 H   0  0  0  0  0  0  0  0  0  0  0  0
   -3.4218   -5.2632    1.1319 H   0  0  0  0  0  0  0  0  0  0  0  0
   -1.2812   -7.2657    0.5618 H   0  0  0  0  0  0  0  0  0  0  0  0
   -0.9258   -6.6709    2.1763 H   0  0  0  0  0  0  0  0  0  0  0  0
    2.8302  -10.9314    1.9980 H   0  0  0  0  0  0  0  0  0  0  0  0
    4.3248  -10.6538    1.0631 H   0  0  0  0  0  0  0  0  0  0  0  0
    1.5897  -11.5848    0.0069 H   0  0  0  0  0  0  0  0  0  0  0  0
    2.9944  -12.6265    0.2672 H   0  0  0  0  0  0  0  0  0  0  0  0
    2.8169  -10.3532   -1.7810 H   0  0  0  0  0  0  0  0  0  0  0  0
    5.0563  -12.4170   -1.3323 H   0  0  0  0  0  0  0  0  0  0  0  0
    5.1697  -10.6436   -1.1024 H   0  0  0  0  0  0  0  0  0  0  0  0
    4.9421  -11.3209   -2.7285 H   0  0  0  0  0  0  0  0  0  0  0  0
    2.7178  -13.3999   -2.2003 H   0  0  0  0  0  0  0  0  0  0  0  0
    2.6899  -12.1703   -3.4860 H   0  0  0  0  0  0  0  0  0  0  0  0
    1.3336  -12.2900   -2.3364 H   0  0  0  0  0  0  0  0  0  0  0  0
  1  2  1  0
  1 53  1  0
  1 54  1  0
  1 55  1  0
  2  3  1  0
  3  4  2  0
  3  8  1  0
  4  5  1  0
  4 56  1  0
  5  6  2  0
  5 24  1  0
  6  7  1  0
  6 18  1  0
  7  8  2  0
  7 57  1  0
  8  9  1  0
  9 10  2  0
  9 17  1  0
 10 11  1  0
 10 58  1  0
 11 12  2  0
 11 59  1  0
 12 13  1  0
 12 16  1  0
 13 14  1  0
 13 15  1  0
 14 60  1  0
 14 61  1  0
 14 62  1  0
 15 63  1  0
 15 64  1  0
 15 65  1  0
 16 17  2  0
 16 66  1  0
 17 67  1  0
 18 19  1  0
 18 68  1  0
 18 69  1  0
 19 20  1  0
 19 24  2  0
 20 21  2  0
 20 51  1  0
 21 22  1  0
 21 43  1  0
 22 23  2  0
 22 42  1  0
 23 24  1  0
 23 25  1  0
 25 26  2  0
 25 41  1  0
 26 27  1  0
 26 70  1  0
 27 28  1  0
 27 30  2  0
 28 29  1  0
 29 71  1  0
 29 72  1  0
 29 73  1  0
 30 31  1  0
 30 40  1  0
 31 32  2  0
 31 39  1  0
 32 33  1  0
 32 74  1  0
 33 34  2  0
 33 75  1  0
 34 35  1  0
 34 38  1  0
 35 36  1  0
 35 37  1  0
 36 76  1  0
 36 77  1  0
 36 78  1  0
 37 79  1  0
 37 80  1  0
 37 81  1  0
 38 39  2  0
 38 82  1  0
 39 83  1  0
 40 41  2  0
 40 84  1  0
 41 42  1  0
 42 85  1  0
 42 86  1  0
 43 44  2  0
 43 45  1  0
 45 46  1  0
 45 51  1  0
 46 47  1  0
 46 87  1  0
 46 88  1  0
 47 48  1  0
 47 89  1  0
 47 90  1  0
 48 49  1  0
 48 50  1  0
 48 91  1  6
 49 92  1  0
 49 93  1  0
 49 94  1  0
 50 95  1  0
 50 96  1  0
 50 97  1  0
 51 52  2  0
M  END

