
     RDKit          3D

 98110  0  0  0  0  0  0  0  0999 V2000
   -3.5123   -4.0099   -4.1278 C   0  0  0  0  0  0  0  0  0  0  0  0
   -3.6769   -2.6350   -4.3296 C   0  0  0  0  0  0  0  0  0  0  0  0
   -3.6373   -1.7581   -3.2454 C   0  0  0  0  0  0  0  0  0  0  0  0
   -3.4331   -2.2496   -1.9435 C   0  0  0  0  0  0  0  0  0  0  0  0
   -3.3927   -1.3135   -0.7918 C   0  0  0  0  0  0  0  0  0  0  0  0
   -3.2492   -1.8173    0.4391 N   0  0  0  0  0  0  0  0  0  0  0  0
   -3.2225   -0.9374    1.4491 C   0  0  0  0  0  0  0  0  0  0  0  0
   -3.0636   -1.4496    2.8325 C   0  0  0  0  0  0  0  0  0  0  0  0
   -2.9988   -0.5550    3.9160 C   0  0  0  0  0  0  0  0  0  0  0  0
   -2.8478   -1.0373    5.2163 C   0  0  0  0  0  0  0  0  0  0  0  0
   -2.7617   -2.4139    5.4505 C   0  0  0  0  0  0  0  0  0  0  0  0
   -2.8254   -3.3096    4.3771 C   0  0  0  0  0  0  0  0  0  0  0  0
   -2.9745   -2.8319    3.0753 C   0  0  0  0  0  0  0  0  0  0  0  0
   -3.3413    0.3890    1.2775 N   0  0  0  0  0  0  0  0  0  0  0  0
   -3.4756    0.8023    0.0172 C   0  0  0  0  0  0  0  0  0  0  0  0
   -3.6287    2.2667   -0.2242 C   0  0  0  0  0  0  0  0  0  0  0  0
   -2.8024    3.2415    0.3793 C   0  0  0  0  0  0  0  0  0  0  0  0
   -1.6999    2.8551    1.1865 N   0  0  0  0  0  0  0  0  0  0  0  0
   -1.5641    3.1102    2.5518 C   0  0  0  0  0  0  0  0  0  0  0  0
   -2.4532    3.7416    3.4301 C   0  0  0  0  0  0  0  0  0  0  0  0
   -2.0741    3.8553    4.7688 C   0  0  0  0  0  0  0  0  0  0  0  0
   -0.8421    3.3511    5.2278 C   0  0  0  0  0  0  0  0  0  0  0  0
    0.0358    2.7151    4.3500 C   0  0  0  0  0  0  0  0  0  0  0  0
   -0.3200    2.5876    2.9998 C   0  0  0  0  0  0  0  0  0  0  0  0
    0.3220    1.9914    1.8430 C   0  0  0  0  0  0  0  0  0  0  0  0
    1.5437    1.3359    1.6483 C   0  0  0  0  0  0  0  0  0  0  0  0
    1.8965    0.8611    0.3753 C   0  0  0  0  0  0  0  0  0  0  0  0
    3.1876    0.1560    0.1508 C   0  0  0  0  0  0  0  0  0  0  0  0
    4.3663    0.5776    0.8161 C   0  0  0  0  0  0  0  0  0  0  0  0
    5.5942   -0.0568    0.6393 C   0  0  0  0  0  0  0  0  0  0  0  0
    5.6510   -1.1526   -0.2302 C   0  0  0  0  0  0  0  0  0  0  0  0
    4.4924   -1.5918   -0.9233 C   0  0  0  0  0  0  0  0  0  0  0  0
    3.2708   -0.9371   -0.7253 C   0  0  0  0  0  0  0  0  0  0  0  0
    4.9003   -2.7127   -1.7488 C   0  0  0  0  0  0  0  0  0  0  0  0
    4.2195   -3.5625   -2.6322 C   0  0  0  0  0  0  0  0  0  0  0  0
    4.9229   -4.5812   -3.2738 C   0  0  0  0  0  0  0  0  0  0  0  0
    6.2981   -4.7613   -3.0337 C   0  0  0  0  0  0  0  0  0  0  0  0
    6.9998   -3.9299   -2.1595 C   0  0  0  0  0  0  0  0  0  0  0  0
    6.2922   -2.8999   -1.5263 C   0  0  0  0  0  0  0  0  0  0  0  0
    6.7387   -1.9484   -0.6029 N   0  0  0  0  0  0  0  0  0  0  0  0
    8.0689   -1.8158   -0.1236 C   0  0  0  0  0  0  0  0  0  0  0  0
    9.1277   -1.6202   -1.0241 C   0  0  0  0  0  0  0  0  0  0  0  0
   10.4360   -1.5001   -0.5502 C   0  0  0  0  0  0  0  0  0  0  0  0
   10.6982   -1.5551    0.8222 C   0  0  0  0  0  0  0  0  0  0  0  0
    9.6429   -1.7403    1.7208 C   0  0  0  0  0  0  0  0  0  0  0  0
    8.3341   -1.8798    1.2532 C   0  0  0  0  0  0  0  0  0  0  0  0
    0.9925    1.0677   -0.6968 C   0  0  0  0  0  0  0  0  0  0  0  0
   -0.2300    1.7161   -0.5321 C   0  0  0  0  0  0  0  0  0  0  0  0
   -0.5631    2.1727    0.7480 C   0  0  0  0  0  0  0  0  0  0  0  0
   -3.0203    4.6178    0.1644 C   0  0  0  0  0  0  0  0  0  0  0  0
   -4.0602    5.0751   -0.6409 C   0  0  0  0  0  0  0  0  0  0  0  0
   -4.8869    4.1337   -1.2652 C   0  0  0  0  0  0  0  0  0  0  0  0
   -4.6453    2.7583   -1.0538 C   0  0  0  0  0  0  0  0  0  0  0  0
   -5.5584    1.9887   -1.7148 O   0  0  0  0  0  0  0  0  0  0  0  0
   -6.3986    2.8479   -2.3722 C   0  0  0  0  0  0  0  0  0  0  0  0
   -7.4726    2.4694   -3.1712 C   0  0  0  0  0  0  0  0  0  0  0  0
   -8.2122    3.5004   -3.7577 C   0  0  0  0  0  0  0  0  0  0  0  0
   -7.8814    4.8523   -3.5456 C   0  0  0  0  0  0  0  0  0  0  0  0
   -6.7997    5.2113   -2.7400 C   0  0  0  0  0  0  0  0  0  0  0  0
   -6.0432    4.1928   -2.1422 C   0  0  0  0  0  0  0  0  0  0  0  0
   -3.5040   -0.0004   -1.0478 N   0  0  0  0  0  0  0  0  0  0  0  0
   -3.2703   -3.6322   -1.7480 C   0  0  0  0  0  0  0  0  0  0  0  0
   -3.3092   -4.5056   -2.8351 C   0  0  0  0  0  0  0  0  0  0  0  0
   -3.5428   -4.6959   -4.9785 H   0  0  0  0  0  0  0  0  0  0  0  0
   -3.8374   -2.2452   -5.3380 H   0  0  0  0  0  0  0  0  0  0  0  0
   -3.7666   -0.6839   -3.3837 H   0  0  0  0  0  0  0  0  0  0  0  0
   -3.0623    0.5161    3.7216 H   0  0  0  0  0  0  0  0  0  0  0  0
   -2.7933   -0.3336    6.0505 H   0  0  0  0  0  0  0  0  0  0  0  0
   -2.6432   -2.7898    6.4704 H   0  0  0  0  0  0  0  0  0  0  0  0
   -2.7576   -4.3855    4.5569 H   0  0  0  0  0  0  0  0  0  0  0  0
   -3.0241   -3.5185    2.2297 H   0  0  0  0  0  0  0  0  0  0  0  0
   -3.4128    4.1277    3.0823 H   0  0  0  0  0  0  0  0  0  0  0  0
   -2.7507    4.3451    5.4740 H   0  0  0  0  0  0  0  0  0  0  0  0
   -0.5751    3.4579    6.2819 H   0  0  0  0  0  0  0  0  0  0  0  0
    0.9882    2.3177    4.7101 H   0  0  0  0  0  0  0  0  0  0  0  0
    2.2131    1.1724    2.4959 H   0  0  0  0  0  0  0  0  0  0  0  0
    4.3179    1.4496    1.4723 H   0  0  0  0  0  0  0  0  0  0  0  0
    6.4847    0.3062    1.1548 H   0  0  0  0  0  0  0  0  0  0  0  0
    2.3750   -1.2935   -1.2390 H   0  0  0  0  0  0  0  0  0  0  0  0
    3.1496   -3.4294   -2.8119 H   0  0  0  0  0  0  0  0  0  0  0  0
    4.4038   -5.2492   -3.9651 H   0  0  0  0  0  0  0  0  0  0  0  0
    6.8306   -5.5710   -3.5395 H   0  0  0  0  0  0  0  0  0  0  0  0
    8.0639   -4.0837   -1.9743 H   0  0  0  0  0  0  0  0  0  0  0  0
    8.9166   -1.5541   -2.0932 H   0  0  0  0  0  0  0  0  0  0  0  0
   11.2543   -1.3495   -1.2590 H   0  0  0  0  0  0  0  0  0  0  0  0
   11.7219   -1.4536    1.1904 H   0  0  0  0  0  0  0  0  0  0  0  0
    9.8397   -1.7900    2.7947 H   0  0  0  0  0  0  0  0  0  0  0  0
    7.5107   -2.0480    1.9502 H   0  0  0  0  0  0  0  0  0  0  0  0
    1.2730    0.7286   -1.6964 H   0  0  0  0  0  0  0  0  0  0  0  0
   -0.8986    1.8641   -1.3818 H   0  0  0  0  0  0  0  0  0  0  0  0
   -2.3376    5.3255    0.6378 H   0  0  0  0  0  0  0  0  0  0  0  0
   -4.2140    6.1461   -0.7898 H   0  0  0  0  0  0  0  0  0  0  0  0
   -7.7166    1.4171   -3.3253 H   0  0  0  0  0  0  0  0  0  0  0  0
   -9.0649    3.2503   -4.3936 H   0  0  0  0  0  0  0  0  0  0  0  0
   -8.4828    5.6310   -4.0204 H   0  0  0  0  0  0  0  0  0  0  0  0
   -6.5494    6.2627   -2.5801 H   0  0  0  0  0  0  0  0  0  0  0  0
   -3.1121   -4.0046   -0.7354 H   0  0  0  0  0  0  0  0  0  0  0  0
   -3.1802   -5.5790   -2.6746 H   0  0  0  0  0  0  0  0  0  0  0  0
  1  2  2  0
  1 63  1  0
  1 64  1  0
  2  3  1  0
  2 65  1  0
  3  4  2  0
  3 66  1  0
  4  5  1  0
  4 62  1  0
  5  6  2  0
  5 61  1  0
  6  7  1  0
  7  8  1  0
  7 14  2  0
  8  9  2  0
  8 13  1  0
  9 10  1  0
  9 67  1  0
 10 11  2  0
 10 68  1  0
 11 12  1  0
 11 69  1  0
 12 13  2  0
 12 70  1  0
 13 71  1  0
 14 15  1  0
 15 16  1  0
 15 61  2  0
 16 17  1  0
 16 53  2  0
 17 18  1  0
 17 50  2  0
 18 19  1  0
 18 49  1  0
 19 20  2  0
 19 24  1  0
 20 21  1  0
 20 72  1  0
 21 22  2  0
 21 73  1  0
 22 23  1  0
 22 74  1  0
 23 24  2  0
 23 75  1  0
 24 25  1  0
 25 26  1  0
 25 49  2  0
 26 27  2  0
 26 76  1  0
 27 28  1  0
 27 47  1  0
 28 29  2  0
 28 33  1  0
 29 30  1  0
 29 77  1  0
 30 31  2  0
 30 78  1  0
 31 32  1  0
 31 40  1  0
 32 33  2  0
 32 34  1  0
 33 79  1  0
 34 35  2  0
 34 39  1  0
 35 36  1  0
 35 80  1  0
 36 37  2  0
 36 81  1  0
 37 38  1  0
 37 82  1  0
 38 39  2  0
 38 83  1  0
 39 40  1  0
 40 41  1  0
 41 42  2  0
 41 46  1  0
 42 43  1  0
 42 84  1  0
 43 44  2  0
 43 85  1  0
 44 45  1  0
 44 86  1  0
 45 46  2  0
 45 87  1  0
 46 88  1  0
 47 48  2  0
 47 89  1  0
 48 49  1  0
 48 90  1  0
 50 51  1  0
 50 91  1  0
 51 52  2  0
 51 92  1  0
 52 53  1  0
 52 60  1  0
 53 54  1  0
 54 55  1  0
 55 56  1  0
 55 60  2  0
 56 57  2  0
 56 93  1  0
 57 58  1  0
 57 94  1  0
 58 59  2  0
 58 95  1  0
 59 60  1  0
 59 96  1  0
 62 63  2  0
 62 97  1  0
 63 98  1  0
M  END

