
     RDKit          3D

 23 25  0  0  0  0  0  0  0  0999 V2000
    3.6636    0.8478   -0.0030 C   0  0  0  0  0  0  0  0  0  0  0  0
    3.7931   -0.5812   -0.0002 C   0  0  0  0  0  0  0  0  0  0  0  0
    2.6664   -1.3766    0.0014 C   0  0  0  0  0  0  0  0  0  0  0  0
    1.3657   -0.8115    0.0006 C   0  0  0  0  0  0  0  0  0  0  0  0
    1.2334    0.6402   -0.0020 C   0  0  0  0  0  0  0  0  0  0  0  0
    2.4098    1.4266   -0.0039 C   0  0  0  0  0  0  0  0  0  0  0  0
   -0.0015    1.2362   -0.0026 N   0  0  0  0  0  0  0  0  0  0  0  0
   -1.2372    0.6418   -0.0009 C   0  0  0  0  0  0  0  0  0  0  0  0
   -2.4126    1.4296   -0.0017 C   0  0  0  0  0  0  0  0  0  0  0  0
   -3.6671    0.8525    0.0004 C   0  0  0  0  0  0  0  0  0  0  0  0
   -3.7984   -0.5763    0.0033 C   0  0  0  0  0  0  0  0  0  0  0  0
   -2.6727   -1.3732    0.0039 C   0  0  0  0  0  0  0  0  0  0  0  0
   -1.3713   -0.8098    0.0019 C   0  0  0  0  0  0  0  0  0  0  0  0
   -0.0035   -1.8570    0.0007 S   0  0  0  0  0  0  0  0  0  0  0  0
    4.5544    1.4787   -0.0044 H   0  0  0  0  0  0  0  0  0  0  0  0
    4.7836   -1.0402    0.0007 H   0  0  0  0  0  0  0  0  0  0  0  0
    2.7651   -2.4660    0.0034 H   0  0  0  0  0  0  0  0  0  0  0  0
    2.3079    2.5171   -0.0059 H   0  0  0  0  0  0  0  0  0  0  0  0
   -0.0009    2.2520   -0.0047 H   0  0  0  0  0  0  0  0  0  0  0  0
   -2.3093    2.5201   -0.0039 H   0  0  0  0  0  0  0  0  0  0  0  0
   -4.5571    1.4844   -0.0003 H   0  0  0  0  0  0  0  0  0  0  0  0
   -4.7895   -1.0342    0.0051 H   0  0  0  0  0  0  0  0  0  0  0  0
   -2.7728   -2.4625    0.0060 H   0  0  0  0  0  0  0  0  0  0  0  0
  1  2  2  0
  1  6  1  0
  1 15  1  0
  2  3  1  0
  2 16  1  0
  3  4  2  0
  3 17  1  0
  4  5  1  0
  4 14  1  0
  5  6  2  0
  5  7  1  0
  6 18  1  0
  7  8  1  0
  7 19  1  0
  8  9  2  0
  8 13  1  0
  9 10  1  0
  9 20  1  0
 10 11  2  0
 10 21  1  0
 11 12  1  0
 11 22  1  0
 12 13  2  0
 12 23  1  0
 13 14  1  0
M  END

