
     RDKit          3D

 83 91  0  0  0  0  0  0  0  0999 V2000
    4.1860   -1.1511   -1.0897 C   0  0  0  0  0  0  0  0  0  0  0  0
    4.4422   -1.6095    0.3575 C   0  0  1  0  0  0  0  0  0  0  0  0
    3.1724   -2.2498    0.9491 C   0  0  0  0  0  0  0  0  0  0  0  0
    5.5999   -2.6183    0.3892 C   0  0  0  0  0  0  0  0  0  0  0  0
    4.8633   -0.4646    1.1996 N   0  0  0  0  0  0  0  0  0  0  0  0
    4.1178    0.6473    1.4684 C   0  0  0  0  0  0  0  0  0  0  0  0
    3.0291    0.8729    0.9618 O   0  0  0  0  0  0  0  0  0  0  0  0
    4.6726    1.5612    2.5495 C   0  0  0  0  0  0  0  0  0  0  0  0
    5.1229    0.9624    3.7187 C   0  0  0  0  0  0  0  0  0  0  0  0
    5.3203    1.6999    4.9003 C   0  0  0  0  0  0  0  0  0  0  0  0
    4.9509    3.0341    4.9665 C   0  0  0  0  0  0  0  0  0  0  0  0
    5.0226    3.7278    6.2872 C   0  0  0  0  0  0  0  0  0  0  0  0
    6.2536    3.8470    6.9560 C   0  0  0  0  0  0  0  0  0  0  0  0
    6.3331    4.4424    8.2167 C   0  0  0  0  0  0  0  0  0  0  0  0
    5.1787    4.9313    8.8403 C   0  0  0  0  0  0  0  0  0  0  0  0
    5.2560    5.5368   10.1337 N   0  0  0  0  0  0  0  0  0  0  0  0
    5.4967    6.9187   10.2594 C   0  0  0  0  0  0  0  0  0  0  0  0
    5.6764    7.7645    9.1558 C   0  0  0  0  0  0  0  0  0  0  0  0
    5.9148    9.1342    9.3294 C   0  0  0  0  0  0  0  0  0  0  0  0
    5.9774    9.6816   10.6088 C   0  0  0  0  0  0  0  0  0  0  0  0
    5.7987    8.8484   11.7207 C   0  0  0  0  0  0  0  0  0  0  0  0
    5.5620    7.4890   11.5498 C   0  0  0  0  0  0  0  0  0  0  0  0
    5.3947    6.7300   12.6827 O   0  0  0  0  0  0  0  0  0  0  0  0
    5.1642    5.3813   12.5582 C   0  0  0  0  0  0  0  0  0  0  0  0
    5.0056    4.6494   13.7297 C   0  0  0  0  0  0  0  0  0  0  0  0
    4.7683    3.2697   13.6763 C   0  0  0  0  0  0  0  0  0  0  0  0
    4.6934    2.6383   12.4370 C   0  0  0  0  0  0  0  0  0  0  0  0
    4.8532    3.3746   11.2558 C   0  0  0  0  0  0  0  0  0  0  0  0
    5.0900    4.7559   11.2941 C   0  0  0  0  0  0  0  0  0  0  0  0
    3.9452    4.8145    8.1858 C   0  0  0  0  0  0  0  0  0  0  0  0
    3.8690    4.2197    6.9257 C   0  0  0  0  0  0  0  0  0  0  0  0
    4.4880    3.6889    3.7750 C   0  0  0  0  0  0  0  0  0  0  0  0
    4.0222    5.0381    3.8026 C   0  0  0  0  0  0  0  0  0  0  0  0
    3.4576    5.6091    2.6943 C   0  0  0  0  0  0  0  0  0  0  0  0
    3.4875    4.9606    1.4244 C   0  0  0  0  0  0  0  0  0  0  0  0
    2.8486    5.5522    0.2488 C   0  0  0  0  0  0  0  0  0  0  0  0
    1.9550    6.6445    0.3617 C   0  0  0  0  0  0  0  0  0  0  0  0
    1.2707    7.1484   -0.7325 C   0  0  0  0  0  0  0  0  0  0  0  0
    1.4753    6.5504   -1.9810 C   0  0  0  0  0  0  0  0  0  0  0  0
    0.8050    7.0194   -3.0430 F   0  0  0  0  0  0  0  0  0  0  0  0
    2.3460    5.4908   -2.1438 C   0  0  0  0  0  0  0  0  0  0  0  0
    3.0567    4.9782   -1.0366 C   0  0  0  0  0  0  0  0  0  0  0  0
    4.0579    3.9232   -1.1821 C   0  0  0  0  0  0  0  0  0  0  0  0
    4.5358    3.5412   -2.4549 C   0  0  0  0  0  0  0  0  0  0  0  0
    5.5844    2.6503   -2.5686 C   0  0  0  0  0  0  0  0  0  0  0  0
    6.0334    2.3126   -3.7866 F   0  0  0  0  0  0  0  0  0  0  0  0
    6.2239    2.1283   -1.4402 C   0  0  0  0  0  0  0  0  0  0  0  0
    5.7386    2.4700   -0.1883 C   0  0  0  0  0  0  0  0  0  0  0  0
    4.6236    3.3266   -0.0175 C   0  0  0  0  0  0  0  0  0  0  0  0
    4.1638    3.7288    1.3121 C   0  0  0  0  0  0  0  0  0  0  0  0
    4.4644    2.9840    2.5218 C   0  0  0  0  0  0  0  0  0  0  0  0
    3.8895   -2.0107   -1.7115 H   0  0  0  0  0  0  0  0  0  0  0  0
    5.0939   -0.7068   -1.5256 H   0  0  0  0  0  0  0  0  0  0  0  0
    3.3859   -0.4000   -1.1185 H   0  0  0  0  0  0  0  0  0  0  0  0
    2.8621   -3.1137    0.3402 H   0  0  0  0  0  0  0  0  0  0  0  0
    2.3491   -1.5230    0.9702 H   0  0  0  0  0  0  0  0  0  0  0  0
    3.3557   -2.6023    1.9769 H   0  0  0  0  0  0  0  0  0  0  0  0
    5.3505   -3.5036   -0.2142 H   0  0  0  0  0  0  0  0  0  0  0  0
    5.8064   -2.9593    1.4174 H   0  0  0  0  0  0  0  0  0  0  0  0
    6.5227   -2.1795   -0.0259 H   0  0  0  0  0  0  0  0  0  0  0  0
    5.7843   -0.5156    1.6170 H   0  0  0  0  0  0  0  0  0  0  0  0
    5.2427   -0.1227    3.7544 H   0  0  0  0  0  0  0  0  0  0  0  0
    5.6675    1.1903    5.8020 H   0  0  0  0  0  0  0  0  0  0  0  0
    7.1618    3.4749    6.4757 H   0  0  0  0  0  0  0  0  0  0  0  0
    7.2947    4.5342    8.7266 H   0  0  0  0  0  0  0  0  0  0  0  0
    5.6307    7.3457    8.1502 H   0  0  0  0  0  0  0  0  0  0  0  0
    6.0516    9.7672    8.4495 H   0  0  0  0  0  0  0  0  0  0  0  0
    6.1630   10.7482   10.7518 H   0  0  0  0  0  0  0  0  0  0  0  0
    5.8391    9.2358   12.7407 H   0  0  0  0  0  0  0  0  0  0  0  0
    5.0721    5.1841   14.6793 H   0  0  0  0  0  0  0  0  0  0  0  0
    4.6444    2.7023   14.6011 H   0  0  0  0  0  0  0  0  0  0  0  0
    4.5091    1.5632   12.3740 H   0  0  0  0  0  0  0  0  0  0  0  0
    4.7927    2.8707   10.2909 H   0  0  0  0  0  0  0  0  0  0  0  0
    3.0435    5.1862    8.6774 H   0  0  0  0  0  0  0  0  0  0  0  0
    2.8979    4.1185    6.4357 H   0  0  0  0  0  0  0  0  0  0  0  0
    4.0784    5.6051    4.7314 H   0  0  0  0  0  0  0  0  0  0  0  0
    3.0433    6.6140    2.7759 H   0  0  0  0  0  0  0  0  0  0  0  0
    1.7642    7.0927    1.3366 H   0  0  0  0  0  0  0  0  0  0  0  0
    0.5709    7.9809   -0.6406 H   0  0  0  0  0  0  0  0  0  0  0  0
    2.4556    5.0680   -3.1418 H   0  0  0  0  0  0  0  0  0  0  0  0
    4.1283    3.9679   -3.3704 H   0  0  0  0  0  0  0  0  0  0  0  0
    7.0965    1.4845   -1.5631 H   0  0  0  0  0  0  0  0  0  0  0  0
    6.2639    2.0998    0.6905 H   0  0  0  0  0  0  0  0  0  0  0  0
  1  2  1  0
  1 52  1  0
  1 53  1  0
  1 54  1  0
  2  3  1  0
  2  4  1  0
  2  5  1  1
  3 55  1  0
  3 56  1  0
  3 57  1  0
  4 58  1  0
  4 59  1  0
  4 60  1  0
  5  6  1  0
  5 61  1  0
  6  7  2  0
  6  8  1  0
  8  9  2  0
  8 51  1  0
  9 10  1  0
  9 62  1  0
 10 11  2  0
 10 63  1  0
 11 12  1  0
 11 32  1  0
 12 13  2  0
 12 31  1  0
 13 14  1  0
 13 64  1  0
 14 15  2  0
 14 65  1  0
 15 16  1  0
 15 30  1  0
 16 17  1  0
 16 29  1  0
 17 18  2  0
 17 22  1  0
 18 19  1  0
 18 66  1  0
 19 20  2  0
 19 67  1  0
 20 21  1  0
 20 68  1  0
 21 22  2  0
 21 69  1  0
 22 23  1  0
 23 24  1  0
 24 25  2  0
 24 29  1  0
 25 26  1  0
 25 70  1  0
 26 27  2  0
 26 71  1  0
 27 28  1  0
 27 72  1  0
 28 29  2  0
 28 73  1  0
 30 31  2  0
 30 74  1  0
 31 75  1  0
 32 33  1  0
 32 51  2  0
 33 34  2  0
 33 76  1  0
 34 35  1  0
 34 77  1  0
 35 36  1  0
 35 50  2  0
 36 37  2  0
 36 42  1  0
 37 38  1  0
 37 78  1  0
 38 39  2  0
 38 79  1  0
 39 40  1  0
 39 41  1  0
 41 42  2  0
 41 80  1  0
 42 43  1  0
 43 44  1  0
 43 49  2  0
 44 45  2  0
 44 81  1  0
 45 46  1  0
 45 47  1  0
 47 48  2  0
 47 82  1  0
 48 49  1  0
 48 83  1  0
 49 50  1  0
 50 51  1  0
M  END

