
     RDKit          3D

 80 86  0  0  0  0  0  0  0  0999 V2000
    4.1306    0.1370    2.3723 C   0  0  0  0  0  0  0  0  0  0  0  0
    3.3404   -0.1582    1.1865 N   0  0  0  0  0  0  0  0  0  0  0  0
    2.3230    0.7907    0.7603 C   0  0  0  0  0  0  0  0  0  0  0  0
    3.5455   -1.3164    0.4856 C   0  0  0  0  0  0  0  0  0  0  0  0
    2.7757   -1.6336   -0.6724 C   0  0  0  0  0  0  0  0  0  0  0  0
    2.9880   -2.8048   -1.3715 C   0  0  0  0  0  0  0  0  0  0  0  0
    3.9724   -3.7599   -0.9867 C   0  0  0  0  0  0  0  0  0  0  0  0
    4.1860   -4.9974   -1.7306 C   0  0  0  0  0  0  0  0  0  0  0  0
    3.6476   -5.1887   -3.0339 C   0  0  0  0  0  0  0  0  0  0  0  0
    3.8481   -6.3602   -3.7392 C   0  0  0  0  0  0  0  0  0  0  0  0
    4.5917   -7.4505   -3.2010 C   0  0  0  0  0  0  0  0  0  0  0  0
    4.8384   -8.6660   -3.9846 C   0  0  0  0  0  0  0  0  0  0  0  0
    5.0529   -8.5186   -5.3624 C   0  0  0  0  0  0  0  0  0  0  0  0
    5.5129   -9.5425   -6.1962 C   0  0  0  0  0  0  0  0  0  0  0  0
    5.8201   -9.2099   -7.6045 C   0  0  0  0  0  0  0  0  0  0  0  0
    6.9811   -9.6806   -8.2636 C   0  0  0  0  0  0  0  0  0  0  0  0
    7.2789   -9.2993   -9.5704 C   0  0  0  0  0  0  0  0  0  0  0  0
    6.4298   -8.4377  -10.2776 C   0  0  0  0  0  0  0  0  0  0  0  0
    5.2727   -7.9651   -9.6484 C   0  0  0  0  0  0  0  0  0  0  0  0
    4.9727   -8.3460   -8.3403 C   0  0  0  0  0  0  0  0  0  0  0  0
    5.7364  -10.8444   -5.5987 C   0  0  0  0  0  0  0  0  0  0  0  0
    6.0097  -12.0131   -6.4844 C   0  0  0  0  0  0  0  0  0  0  0  0
    5.0946  -12.3370   -7.5085 C   0  0  0  0  0  0  0  0  0  0  0  0
    5.3065  -13.4255   -8.3536 C   0  0  0  0  0  0  0  0  0  0  0  0
    6.4515  -14.2190   -8.2108 C   0  0  0  0  0  0  0  0  0  0  0  0
    7.3788  -13.9033   -7.2142 C   0  0  0  0  0  0  0  0  0  0  0  0
    7.1622  -12.8152   -6.3649 C   0  0  0  0  0  0  0  0  0  0  0  0
    5.5146  -11.0252   -4.2114 C   0  0  0  0  0  0  0  0  0  0  0  0
    5.6135  -12.4150   -3.6442 C   0  0  0  0  0  0  0  0  0  0  0  0
    6.8159  -12.9105   -3.1155 C   0  0  0  0  0  0  0  0  0  0  0  0
    6.8950  -14.2065   -2.5965 C   0  0  0  0  0  0  0  0  0  0  0  0
    5.7661  -15.0308   -2.5964 C   0  0  0  0  0  0  0  0  0  0  0  0
    4.5618  -14.5492   -3.1177 C   0  0  0  0  0  0  0  0  0  0  0  0
    4.4881  -13.2532   -3.6372 C   0  0  0  0  0  0  0  0  0  0  0  0
    5.0238   -9.9792   -3.3820 C   0  0  0  0  0  0  0  0  0  0  0  0
    4.4901  -10.2322   -2.0254 C   0  0  0  0  0  0  0  0  0  0  0  0
    5.2198  -10.8849   -1.0002 C   0  0  0  0  0  0  0  0  0  0  0  0
    4.6805  -11.0723    0.2712 C   0  0  0  0  0  0  0  0  0  0  0  0
    3.3916  -10.6159    0.5796 C   0  0  0  0  0  0  0  0  0  0  0  0
    2.6537   -9.9607   -0.4138 C   0  0  0  0  0  0  0  0  0  0  0  0
    3.1926   -9.7687   -1.6848 C   0  0  0  0  0  0  0  0  0  0  0  0
    5.1189   -7.2593   -1.8884 C   0  0  0  0  0  0  0  0  0  0  0  0
    4.9348   -6.0789   -1.1937 C   0  0  0  0  0  0  0  0  0  0  0  0
    4.7338   -3.4298    0.1712 C   0  0  0  0  0  0  0  0  0  0  0  0
    4.5378   -2.2621    0.8806 C   0  0  0  0  0  0  0  0  0  0  0  0
    3.8121    1.0985    2.7907 H   0  0  0  0  0  0  0  0  0  0  0  0
    5.2064    0.2049    2.1366 H   0  0  0  0  0  0  0  0  0  0  0  0
    3.9995   -0.6356    3.1491 H   0  0  0  0  0  0  0  0  0  0  0  0
    2.3185    1.6491    1.4416 H   0  0  0  0  0  0  0  0  0  0  0  0
    1.3164    0.3387    0.7717 H   0  0  0  0  0  0  0  0  0  0  0  0
    2.5184    1.1633   -0.2596 H   0  0  0  0  0  0  0  0  0  0  0  0
    1.9974   -0.9557   -1.0196 H   0  0  0  0  0  0  0  0  0  0  0  0
    2.3550   -3.0042   -2.2358 H   0  0  0  0  0  0  0  0  0  0  0  0
    3.0712   -4.3944   -3.5110 H   0  0  0  0  0  0  0  0  0  0  0  0
    3.4015   -6.4608   -4.7294 H   0  0  0  0  0  0  0  0  0  0  0  0
    4.9743   -7.5199   -5.7953 H   0  0  0  0  0  0  0  0  0  0  0  0
    7.6680  -10.3402   -7.7324 H   0  0  0  0  0  0  0  0  0  0  0  0
    8.1912   -9.6752  -10.0427 H   0  0  0  0  0  0  0  0  0  0  0  0
    6.6639   -8.1454  -11.3045 H   0  0  0  0  0  0  0  0  0  0  0  0
    4.5879   -7.3034  -10.1871 H   0  0  0  0  0  0  0  0  0  0  0  0
    4.0464   -7.9917   -7.8810 H   0  0  0  0  0  0  0  0  0  0  0  0
    4.1991  -11.7235   -7.6309 H   0  0  0  0  0  0  0  0  0  0  0  0
    4.5717  -13.6587   -9.1292 H   0  0  0  0  0  0  0  0  0  0  0  0
    6.6207  -15.0710   -8.8746 H   0  0  0  0  0  0  0  0  0  0  0  0
    8.2842  -14.5056   -7.0978 H   0  0  0  0  0  0  0  0  0  0  0  0
    7.9073  -12.5700   -5.6072 H   0  0  0  0  0  0  0  0  0  0  0  0
    7.7006  -12.2678   -3.1094 H   0  0  0  0  0  0  0  0  0  0  0  0
    7.8423  -14.5733   -2.1916 H   0  0  0  0  0  0  0  0  0  0  0  0
    5.8249  -16.0451   -2.1925 H   0  0  0  0  0  0  0  0  0  0  0  0
    3.6732  -15.1863   -3.1226 H   0  0  0  0  0  0  0  0  0  0  0  0
    3.5449  -12.8811   -4.0440 H   0  0  0  0  0  0  0  0  0  0  0  0
    6.2336  -11.2288   -1.2022 H   0  0  0  0  0  0  0  0  0  0  0  0
    5.2784  -11.5766    1.0360 H   0  0  0  0  0  0  0  0  0  0  0  0
    2.9716  -10.7676    1.5772 H   0  0  0  0  0  0  0  0  0  0  0  0
    1.6413   -9.6056   -0.1994 H   0  0  0  0  0  0  0  0  0  0  0  0
    2.5912   -9.2767   -2.4527 H   0  0  0  0  0  0  0  0  0  0  0  0
    5.6998   -8.0578   -1.4301 H   0  0  0  0  0  0  0  0  0  0  0  0
    5.3644   -6.0036   -0.1935 H   0  0  0  0  0  0  0  0  0  0  0  0
    5.5181   -4.1070    0.5087 H   0  0  0  0  0  0  0  0  0  0  0  0
    5.1646   -2.0713    1.7504 H   0  0  0  0  0  0  0  0  0  0  0  0
  1  2  1  0
  1 46  1  0
  1 47  1  0
  1 48  1  0
  2  3  1  0
  2  4  1  0
  3 49  1  0
  3 50  1  0
  3 51  1  0
  4  5  2  0
  4 45  1  0
  5  6  1  0
  5 52  1  0
  6  7  2  0
  6 53  1  0
  7  8  1  0
  7 44  1  0
  8  9  2  0
  8 43  1  0
  9 10  1  0
  9 54  1  0
 10 11  2  0
 10 55  1  0
 11 12  1  0
 11 42  1  0
 12 13  2  0
 12 35  1  0
 13 14  1  0
 13 56  1  0
 14 15  1  0
 14 21  2  0
 15 16  2  0
 15 20  1  0
 16 17  1  0
 16 57  1  0
 17 18  2  0
 17 58  1  0
 18 19  1  0
 18 59  1  0
 19 20  2  0
 19 60  1  0
 20 61  1  0
 21 22  1  0
 21 28  1  0
 22 23  2  0
 22 27  1  0
 23 24  1  0
 23 62  1  0
 24 25  2  0
 24 63  1  0
 25 26  1  0
 25 64  1  0
 26 27  2  0
 26 65  1  0
 27 66  1  0
 28 29  1  0
 28 35  2  0
 29 30  2  0
 29 34  1  0
 30 31  1  0
 30 67  1  0
 31 32  2  0
 31 68  1  0
 32 33  1  0
 32 69  1  0
 33 34  2  0
 33 70  1  0
 34 71  1  0
 35 36  1  0
 36 37  2  0
 36 41  1  0
 37 38  1  0
 37 72  1  0
 38 39  2  0
 38 73  1  0
 39 40  1  0
 39 74  1  0
 40 41  2  0
 40 75  1  0
 41 76  1  0
 42 43  2  0
 42 77  1  0
 43 78  1  0
 44 45  2  0
 44 79  1  0
 45 80  1  0
M  END

