
     RDKit          3D

 81 85  0  0  0  0  0  0  0  0999 V2000
    0.9823    2.6637   -1.2524 C   0  0  0  0  0  0  0  0  0  0  0  0
    2.4633    2.7928   -1.6115 C   0  0  0  0  0  0  0  0  0  0  0  0
    3.0390    1.5504   -2.2982 C   0  0  0  0  0  0  0  0  0  0  0  0
    4.5228    1.6698   -2.6574 C   0  0  0  0  0  0  0  0  0  0  0  0
    5.0954    0.4274   -3.3469 C   0  0  0  0  0  0  0  0  0  0  0  0
    6.5815    0.5656   -3.6994 C   0  0  0  0  0  0  0  0  0  0  0  0
    7.1719   -0.7199   -4.3064 C   0  0  1  0  0  0  0  0  0  0  0  0
    6.6232   -1.1403   -5.6881 C   0  0  0  0  0  0  0  0  0  0  0  0
    6.6819   -0.1463   -6.8530 C   0  0  0  0  0  0  0  0  0  0  0  0
    6.0471   -0.7087   -8.1299 C   0  0  0  0  0  0  0  0  0  0  0  0
    6.0852    0.2581   -9.3167 C   0  0  0  0  0  0  0  0  0  0  0  0
    5.4567   -0.3024  -10.5966 C   0  0  0  0  0  0  0  0  0  0  0  0
    5.4990    0.6692  -11.7770 C   0  0  0  0  0  0  0  0  0  0  0  0
    8.6669   -0.7656   -4.2424 N   0  0  0  0  0  0  0  0  0  0  0  0
    9.2198   -1.9518   -3.7142 C   0  0  0  0  0  0  0  0  0  0  0  0
    8.5082   -2.8783   -3.3672 O   0  0  0  0  0  0  0  0  0  0  0  0
   10.7013   -2.0270   -3.5884 C   0  0  0  0  0  0  0  0  0  0  0  0
   11.2743   -3.1645   -3.0410 C   0  0  0  0  0  0  0  0  0  0  0  0
   12.6745   -3.2501   -2.8929 C   0  0  0  0  0  0  0  0  0  0  0  0
   13.4907   -2.2111   -3.3015 C   0  0  0  0  0  0  0  0  0  0  0  0
   12.9446   -1.0322   -3.8831 C   0  0  0  0  0  0  0  0  0  0  0  0
   13.7485    0.0732   -4.3261 C   0  0  0  0  0  0  0  0  0  0  0  0
   15.2407    0.0225   -4.2675 C   0  0  0  0  0  0  0  0  0  0  0  0
   15.9330   -0.8188   -5.1204 C   0  0  0  0  0  0  0  0  0  0  0  0
   17.3466   -0.8754   -5.1490 C   0  0  0  0  0  0  0  0  0  0  0  0
   18.0880   -0.0718   -4.3004 C   0  0  0  0  0  0  0  0  0  0  0  0
   19.4410   -0.0468   -4.2549 O   0  0  0  0  0  0  0  0  0  0  0  0
   20.1806   -0.8803   -5.1197 C   0  0  0  0  0  0  0  0  0  0  0  0
   17.4233    0.8114   -3.3831 C   0  0  0  0  0  0  0  0  0  0  0  0
   18.1642    1.6327   -2.4916 C   0  0  0  0  0  0  0  0  0  0  0  0
   17.5211    2.4685   -1.6017 C   0  0  0  0  0  0  0  0  0  0  0  0
   16.1078    2.5103   -1.5665 C   0  0  0  0  0  0  0  0  0  0  0  0
   15.3636    1.7254   -2.4242 C   0  0  0  0  0  0  0  0  0  0  0  0
   15.9891    0.8576   -3.3647 C   0  0  0  0  0  0  0  0  0  0  0  0
   13.1132    1.1971   -4.8455 C   0  0  0  0  0  0  0  0  0  0  0  0
   11.7118    1.2703   -4.9652 C   0  0  0  0  0  0  0  0  0  0  0  0
   10.9158    0.2114   -4.5580 C   0  0  0  0  0  0  0  0  0  0  0  0
   11.5195   -0.9476   -4.0112 C   0  0  0  0  0  0  0  0  0  0  0  0
    9.4372    0.3094   -4.7112 C   0  0  0  0  0  0  0  0  0  0  0  0
    8.9214    1.2880   -5.2229 O   0  0  0  0  0  0  0  0  0  0  0  0
    0.6033    3.5733   -0.7592 H   0  0  0  0  0  0  0  0  0  0  0  0
    0.8082    1.8169   -0.5671 H   0  0  0  0  0  0  0  0  0  0  0  0
    0.3651    2.4908   -2.1502 H   0  0  0  0  0  0  0  0  0  0  0  0
    3.0472    3.0050   -0.6971 H   0  0  0  0  0  0  0  0  0  0  0  0
    2.6088    3.6700   -2.2681 H   0  0  0  0  0  0  0  0  0  0  0  0
    2.4569    1.3389   -3.2149 H   0  0  0  0  0  0  0  0  0  0  0  0
    2.8916    0.6714   -1.6428 H   0  0  0  0  0  0  0  0  0  0  0  0
    5.1044    1.8788   -1.7402 H   0  0  0  0  0  0  0  0  0  0  0  0
    4.6718    2.5490   -3.3112 H   0  0  0  0  0  0  0  0  0  0  0  0
    4.5084    0.2258   -4.2608 H   0  0  0  0  0  0  0  0  0  0  0  0
    4.9476   -0.4532   -2.6944 H   0  0  0  0  0  0  0  0  0  0  0  0
    7.1437    0.7932   -2.7765 H   0  0  0  0  0  0  0  0  0  0  0  0
    6.7326    1.4246   -4.3665 H   0  0  0  0  0  0  0  0  0  0  0  0
    6.8905   -1.5399   -3.6349 H   0  0  0  0  0  0  0  0  0  0  0  0
    5.5692   -1.4313   -5.5314 H   0  0  0  0  0  0  0  0  0  0  0  0
    7.1349   -2.0760   -5.9730 H   0  0  0  0  0  0  0  0  0  0  0  0
    7.7232    0.1465   -7.0576 H   0  0  0  0  0  0  0  0  0  0  0  0
    6.1661    0.7892   -6.5748 H   0  0  0  0  0  0  0  0  0  0  0  0
    4.9975   -0.9934   -7.9254 H   0  0  0  0  0  0  0  0  0  0  0  0
    6.5595   -1.6484   -8.4095 H   0  0  0  0  0  0  0  0  0  0  0  0
    7.1341    0.5436   -9.5208 H   0  0  0  0  0  0  0  0  0  0  0  0
    5.5707    1.1973   -9.0396 H   0  0  0  0  0  0  0  0  0  0  0  0
    4.4085   -0.5876  -10.3911 H   0  0  0  0  0  0  0  0  0  0  0  0
    5.9720   -1.2407  -10.8722 H   0  0  0  0  0  0  0  0  0  0  0  0
    4.9608    1.6040  -11.5462 H   0  0  0  0  0  0  0  0  0  0  0  0
    5.0378    0.2343  -12.6783 H   0  0  0  0  0  0  0  0  0  0  0  0
    6.5362    0.9435  -12.0336 H   0  0  0  0  0  0  0  0  0  0  0  0
   10.6180   -3.9771   -2.7245 H   0  0  0  0  0  0  0  0  0  0  0  0
   13.1158   -4.1444   -2.4467 H   0  0  0  0  0  0  0  0  0  0  0  0
   14.5718   -2.2848   -3.1759 H   0  0  0  0  0  0  0  0  0  0  0  0
   15.3741   -1.4542   -5.8122 H   0  0  0  0  0  0  0  0  0  0  0  0
   17.8317   -1.5516   -5.8525 H   0  0  0  0  0  0  0  0  0  0  0  0
   21.2409   -0.6883   -4.9083 H   0  0  0  0  0  0  0  0  0  0  0  0
   19.9780   -0.6500   -6.1809 H   0  0  0  0  0  0  0  0  0  0  0  0
   19.9658   -1.9488   -4.9398 H   0  0  0  0  0  0  0  0  0  0  0  0
   19.2528    1.5842   -2.5256 H   0  0  0  0  0  0  0  0  0  0  0  0
   18.1021    3.0949   -0.9203 H   0  0  0  0  0  0  0  0  0  0  0  0
   15.6010    3.1657   -0.8536 H   0  0  0  0  0  0  0  0  0  0  0  0
   14.2741    1.7626   -2.3830 H   0  0  0  0  0  0  0  0  0  0  0  0
   13.7220    2.0383   -5.1847 H   0  0  0  0  0  0  0  0  0  0  0  0
   11.2287    2.1530   -5.3885 H   0  0  0  0  0  0  0  0  0  0  0  0
  1  2  1  0
  1 41  1  0
  1 42  1  0
  1 43  1  0
  2  3  1  0
  2 44  1  0
  2 45  1  0
  3  4  1  0
  3 46  1  0
  3 47  1  0
  4  5  1  0
  4 48  1  0
  4 49  1  0
  5  6  1  0
  5 50  1  0
  5 51  1  0
  6  7  1  0
  6 52  1  0
  6 53  1  0
  7  8  1  0
  7 14  1  0
  7 54  1  1
  8  9  1  0
  8 55  1  0
  8 56  1  0
  9 10  1  0
  9 57  1  0
  9 58  1  0
 10 11  1  0
 10 59  1  0
 10 60  1  0
 11 12  1  0
 11 61  1  0
 11 62  1  0
 12 13  1  0
 12 63  1  0
 12 64  1  0
 13 65  1  0
 13 66  1  0
 13 67  1  0
 14 15  1  0
 14 39  1  0
 15 16  2  0
 15 17  1  0
 17 18  1  0
 17 38  2  0
 18 19  2  0
 18 68  1  0
 19 20  1  0
 19 69  1  0
 20 21  2  0
 20 70  1  0
 21 22  1  0
 21 38  1  0
 22 23  1  0
 22 35  2  0
 23 24  2  0
 23 34  1  0
 24 25  1  0
 24 71  1  0
 25 26  2  0
 25 72  1  0
 26 27  1  0
 26 29  1  0
 27 28  1  0
 28 73  1  0
 28 74  1  0
 28 75  1  0
 29 30  1  0
 29 34  2  0
 30 31  2  0
 30 76  1  0
 31 32  1  0
 31 77  1  0
 32 33  2  0
 32 78  1  0
 33 34  1  0
 33 79  1  0
 35 36  1  0
 35 80  1  0
 36 37  2  0
 36 81  1  0
 37 38  1  0
 37 39  1  0
 39 40  2  0
M  END

