
     RDKit          3D

 45 49  0  0  0  0  0  0  0  0999 V2000
    5.3217    2.0671    2.8523 C   0  0  0  0  0  0  0  0  0  0  0  0
    6.0080    3.1646    2.0349 C   0  0  1  0  0  0  0  0  0  0  0  0
    5.1089    4.3856    1.8237 C   0  0  0  0  0  0  0  0  0  0  0  0
    7.3375    3.5696    2.6721 C   0  0  0  0  0  0  0  0  0  0  0  0
    6.4249    2.6220    0.7251 O   0  0  0  0  0  0  0  0  0  0  0  0
    5.5381    2.1564   -0.1522 C   0  0  0  0  0  0  0  0  0  0  0  0
    4.3369    2.1042   -0.0191 O   0  0  0  0  0  0  0  0  0  0  0  0
    6.1685    1.7008   -1.3262 N   0  0  0  0  0  0  0  0  0  0  0  0
    5.4148    1.1836   -2.3734 C   0  0  0  0  0  0  0  0  0  0  0  0
    6.2597    0.8140   -3.4054 C   0  0  0  0  0  0  0  0  0  0  0  0
    7.5912    1.1024   -3.0066 C   0  0  0  0  0  0  0  0  0  0  0  0
    8.8605    0.9275   -3.6702 C   0  0  0  0  0  0  0  0  0  0  0  0
    8.9851    0.3846   -4.9676 C   0  0  0  0  0  0  0  0  0  0  0  0
   10.2333    0.2352   -5.5681 C   0  0  0  0  0  0  0  0  0  0  0  0
   11.4246    0.6214   -4.8996 C   0  0  0  0  0  0  0  0  0  0  0  0
   12.7123    0.4792   -5.4904 C   0  0  0  0  0  0  0  0  0  0  0  0
   13.8658    0.8696   -4.8028 C   0  0  0  0  0  0  0  0  0  0  0  0
   13.7831    1.4081   -3.5220 C   0  0  0  0  0  0  0  0  0  0  0  0
   12.5167    1.5737   -2.8813 C   0  0  0  0  0  0  0  0  0  0  0  0
   12.3916    2.1181   -1.5789 C   0  0  0  0  0  0  0  0  0  0  0  0
   11.1450    2.2697   -0.9764 C   0  0  0  0  0  0  0  0  0  0  0  0
    9.9519    1.8874   -1.6383 C   0  0  0  0  0  0  0  0  0  0  0  0
    8.6745    2.0505   -1.0048 C   0  0  0  0  0  0  0  0  0  0  0  0
    7.5364    1.6611   -1.6936 C   0  0  0  0  0  0  0  0  0  0  0  0
   10.0464    1.3300   -2.9633 C   0  0  0  0  0  0  0  0  0  0  0  0
   11.3225    1.1761   -3.5778 C   0  0  0  0  0  0  0  0  0  0  0  0
    5.1155    2.4416    3.8670 H   0  0  0  0  0  0  0  0  0  0  0  0
    5.9770    1.1867    2.9408 H   0  0  0  0  0  0  0  0  0  0  0  0
    4.3738    1.7607    2.3924 H   0  0  0  0  0  0  0  0  0  0  0  0
    4.8962    4.8556    2.7964 H   0  0  0  0  0  0  0  0  0  0  0  0
    4.1574    4.1052    1.3545 H   0  0  0  0  0  0  0  0  0  0  0  0
    5.6142    5.1302    1.1890 H   0  0  0  0  0  0  0  0  0  0  0  0
    7.1611    3.9978    3.6702 H   0  0  0  0  0  0  0  0  0  0  0  0
    7.8511    4.3240    2.0572 H   0  0  0  0  0  0  0  0  0  0  0  0
    7.9994    2.6972    2.7815 H   0  0  0  0  0  0  0  0  0  0  0  0
    4.3348    1.1322   -2.2737 H   0  0  0  0  0  0  0  0  0  0  0  0
    5.9344    0.3796   -4.3486 H   0  0  0  0  0  0  0  0  0  0  0  0
    8.0877    0.0772   -5.5088 H   0  0  0  0  0  0  0  0  0  0  0  0
   10.3055   -0.1872   -6.5738 H   0  0  0  0  0  0  0  0  0  0  0  0
   12.7873    0.0574   -6.4962 H   0  0  0  0  0  0  0  0  0  0  0  0
   14.8431    0.7502   -5.2781 H   0  0  0  0  0  0  0  0  0  0  0  0
   14.6876    1.7121   -2.9886 H   0  0  0  0  0  0  0  0  0  0  0  0
   13.2948    2.4225   -1.0435 H   0  0  0  0  0  0  0  0  0  0  0  0
   11.0758    2.6923    0.0294 H   0  0  0  0  0  0  0  0  0  0  0  0
    8.6211    2.4709   -0.0045 H   0  0  0  0  0  0  0  0  0  0  0  0
  1  2  1  0
  1 27  1  0
  1 28  1  0
  1 29  1  0
  2  3  1  0
  2  4  1  0
  2  5  1  6
  3 30  1  0
  3 31  1  0
  3 32  1  0
  4 33  1  0
  4 34  1  0
  4 35  1  0
  5  6  1  0
  6  7  2  0
  6  8  1  0
  8  9  1  0
  8 24  1  0
  9 10  2  0
  9 36  1  0
 10 11  1  0
 10 37  1  0
 11 12  1  0
 11 24  2  0
 12 13  2  0
 12 25  1  0
 13 14  1  0
 13 38  1  0
 14 15  2  0
 14 39  1  0
 15 16  1  0
 15 26  1  0
 16 17  2  0
 16 40  1  0
 17 18  1  0
 17 41  1  0
 18 19  2  0
 18 42  1  0
 19 20  1  0
 19 26  1  0
 20 21  2  0
 20 43  1  0
 21 22  1  0
 21 44  1  0
 22 23  2  0
 22 25  1  0
 23 24  1  0
 23 45  1  0
 25 26  2  0
M  END

