
     RDKit          3D

 68 72  0  0  0  0  0  0  0  0999 V2000
    1.2537   -0.7985    1.1027 N   0  0  0  0  0  0  0  0  0  0  0  0
    2.3628   -0.6187    0.8089 C   0  0  0  0  0  0  0  0  0  0  0  0
    3.7450   -0.4113    0.4643 C   0  0  0  0  0  0  0  0  0  0  0  0
    4.1759    0.8466    0.5114 N   0  0  0  0  0  0  0  0  0  0  0  0
    5.4725    1.1303    0.3745 C   0  0  0  0  0  0  0  0  0  0  0  0
    5.8609    2.4494    0.2689 N   0  0  0  0  0  0  0  0  0  0  0  0
    7.0352    2.8394   -0.5246 C   0  0  0  0  0  0  0  0  0  0  0  0
    7.0716    2.2362   -1.9209 C   0  0  0  0  0  0  0  0  0  0  0  0
    5.9264    2.2162   -2.7343 C   0  0  0  0  0  0  0  0  0  0  0  0
    5.9591    1.6708   -4.0180 C   0  0  0  0  0  0  0  0  0  0  0  0
    7.1582    1.1355   -4.4998 C   0  0  0  0  0  0  0  0  0  0  0  0
    7.1996    0.4103   -6.0930 Cl  0  0  0  0  0  0  0  0  0  0  0  0
    8.3146    1.1543   -3.7179 C   0  0  0  0  0  0  0  0  0  0  0  0
    8.2617    1.7011   -2.4325 C   0  0  0  0  0  0  0  0  0  0  0  0
    4.9347    3.5147    0.6569 C   0  0  0  0  0  0  0  0  0  0  0  0
    5.5545    4.5383    1.5920 C   0  0  0  0  0  0  0  0  0  0  0  0
    5.3066    5.9062    1.4118 C   0  0  0  0  0  0  0  0  0  0  0  0
    5.8257    6.8600    2.2914 C   0  0  0  0  0  0  0  0  0  0  0  0
    6.6138    6.4408    3.3655 C   0  0  0  0  0  0  0  0  0  0  0  0
    7.2767    7.6239    4.4684 Cl  0  0  0  0  0  0  0  0  0  0  0  0
    6.8820    5.0821    3.5632 C   0  0  0  0  0  0  0  0  0  0  0  0
    6.3509    4.1432    2.6784 C   0  0  0  0  0  0  0  0  0  0  0  0
    6.3761    0.0179    0.3883 C   0  0  0  0  0  0  0  0  0  0  0  0
    7.7814    0.1707    0.6591 C   0  0  0  0  0  0  0  0  0  0  0  0
    8.9095    0.3013    0.9024 N   0  0  0  0  0  0  0  0  0  0  0  0
    5.9411   -1.2309    0.2373 N   0  0  0  0  0  0  0  0  0  0  0  0
    4.6355   -1.4932    0.1640 C   0  0  0  0  0  0  0  0  0  0  0  0
    4.2433   -2.7794   -0.1476 N   0  0  0  0  0  0  0  0  0  0  0  0
    3.0039   -3.0268   -0.8985 C   0  0  0  0  0  0  0  0  0  0  0  0
    2.8887   -2.2388   -2.1958 C   0  0  0  0  0  0  0  0  0  0  0  0
    3.9593   -2.1784   -3.1030 C   0  0  0  0  0  0  0  0  0  0  0  0
    3.8627   -1.4505   -4.2890 C   0  0  0  0  0  0  0  0  0  0  0  0
    2.6739   -0.7708   -4.5755 C   0  0  0  0  0  0  0  0  0  0  0  0
    2.5605    0.1857   -6.0377 Cl  0  0  0  0  0  0  0  0  0  0  0  0
    1.5888   -0.8265   -3.6993 C   0  0  0  0  0  0  0  0  0  0  0  0
    1.7061   -1.5566   -2.5127 C   0  0  0  0  0  0  0  0  0  0  0  0
    5.2710   -3.8289   -0.0899 C   0  0  0  0  0  0  0  0  0  0  0  0
    5.6881   -4.2007    1.3218 C   0  0  0  0  0  0  0  0  0  0  0  0
    4.7315   -4.5907    2.2718 C   0  0  0  0  0  0  0  0  0  0  0  0
    5.1069   -4.9664    3.5618 C   0  0  0  0  0  0  0  0  0  0  0  0
    6.4614   -4.9525    3.9114 C   0  0  0  0  0  0  0  0  0  0  0  0
    6.9415   -5.4246    5.5255 Cl  0  0  0  0  0  0  0  0  0  0  0  0
    7.4317   -4.5617    2.9862 C   0  0  0  0  0  0  0  0  0  0  0  0
    7.0366   -4.1848    1.6999 C   0  0  0  0  0  0  0  0  0  0  0  0
    7.9757    2.6135    0.0002 H   0  0  0  0  0  0  0  0  0  0  0  0
    6.9970    3.9371   -0.5989 H   0  0  0  0  0  0  0  0  0  0  0  0
    4.9824    2.6202   -2.3594 H   0  0  0  0  0  0  0  0  0  0  0  0
    5.0630    1.6480   -4.6405 H   0  0  0  0  0  0  0  0  0  0  0  0
    9.2418    0.7290   -4.1053 H   0  0  0  0  0  0  0  0  0  0  0  0
    9.1610    1.6888   -1.8114 H   0  0  0  0  0  0  0  0  0  0  0  0
    4.0705    3.0353    1.1362 H   0  0  0  0  0  0  0  0  0  0  0  0
    4.5418    4.0314   -0.2378 H   0  0  0  0  0  0  0  0  0  0  0  0
    4.6943    6.2396    0.5687 H   0  0  0  0  0  0  0  0  0  0  0  0
    5.6280    7.9230    2.1442 H   0  0  0  0  0  0  0  0  0  0  0  0
    7.5021    4.7682    4.4045 H   0  0  0  0  0  0  0  0  0  0  0  0
    6.5676    3.0833    2.8337 H   0  0  0  0  0  0  0  0  0  0  0  0
    2.1152   -2.8390   -0.2780 H   0  0  0  0  0  0  0  0  0  0  0  0
    2.9908   -4.1045   -1.1199 H   0  0  0  0  0  0  0  0  0  0  0  0
    4.8954   -2.6964   -2.8791 H   0  0  0  0  0  0  0  0  0  0  0  0
    4.7043   -1.3926   -4.9814 H   0  0  0  0  0  0  0  0  0  0  0  0
    0.6693   -0.2882   -3.9348 H   0  0  0  0  0  0  0  0  0  0  0  0
    0.8658   -1.5761   -1.8137 H   0  0  0  0  0  0  0  0  0  0  0  0
    6.1631   -3.5313   -0.6633 H   0  0  0  0  0  0  0  0  0  0  0  0
    4.8430   -4.7121   -0.5868 H   0  0  0  0  0  0  0  0  0  0  0  0
    3.6712   -4.5972    2.0044 H   0  0  0  0  0  0  0  0  0  0  0  0
    4.3598   -5.2708    4.2966 H   0  0  0  0  0  0  0  0  0  0  0  0
    8.4837   -4.5443    3.2753 H   0  0  0  0  0  0  0  0  0  0  0  0
    7.7947   -3.8620    0.9818 H   0  0  0  0  0  0  0  0  0  0  0  0
  1  2  3  0
  2  3  1  0
  3  4  2  0
  3 27  1  0
  4  5  1  0
  5  6  1  0
  5 23  2  0
  6  7  1  0
  6 15  1  0
  7  8  1  0
  7 45  1  0
  7 46  1  0
  8  9  2  0
  8 14  1  0
  9 10  1  0
  9 47  1  0
 10 11  2  0
 10 48  1  0
 11 12  1  0
 11 13  1  0
 13 14  2  0
 13 49  1  0
 14 50  1  0
 15 16  1  0
 15 51  1  0
 15 52  1  0
 16 17  2  0
 16 22  1  0
 17 18  1  0
 17 53  1  0
 18 19  2  0
 18 54  1  0
 19 20  1  0
 19 21  1  0
 21 22  2  0
 21 55  1  0
 22 56  1  0
 23 24  1  0
 23 26  1  0
 24 25  3  0
 26 27  2  0
 27 28  1  0
 28 29  1  0
 28 37  1  0
 29 30  1  0
 29 57  1  0
 29 58  1  0
 30 31  2  0
 30 36  1  0
 31 32  1  0
 31 59  1  0
 32 33  2  0
 32 60  1  0
 33 34  1  0
 33 35  1  0
 35 36  2  0
 35 61  1  0
 36 62  1  0
 37 38  1  0
 37 63  1  0
 37 64  1  0
 38 39  2  0
 38 44  1  0
 39 40  1  0
 39 65  1  0
 40 41  2  0
 40 66  1  0
 41 42  1  0
 41 43  1  0
 43 44  2  0
 43 67  1  0
 44 68  1  0
M  END

