
     RDKit          3D

 64 69  0  0  0  0  0  0  0  0999 V2000
    1.6480    0.0619   -0.6079 C   0  0  0  0  0  0  0  0  0  0  0  0
    2.8193   -0.3497    0.0723 O   0  0  0  0  0  0  0  0  0  0  0  0
    3.3561    0.4368    1.0215 C   0  0  0  0  0  0  0  0  0  0  0  0
    2.8402    1.6843    1.4196 C   0  0  0  0  0  0  0  0  0  0  0  0
    3.4804    2.4226    2.4072 C   0  0  0  0  0  0  0  0  0  0  0  0
    4.6495    1.9523    3.0674 C   0  0  0  0  0  0  0  0  0  0  0  0
    5.3208    2.6881    4.1421 C   0  0  0  0  0  0  0  0  0  0  0  0
    6.1867    1.9674    5.0106 C   0  0  0  0  0  0  0  0  0  0  0  0
    6.9196    2.5870    5.9997 C   0  0  0  0  0  0  0  0  0  0  0  0
    6.8388    3.9858    6.2291 C   0  0  0  0  0  0  0  0  0  0  0  0
    7.6578    4.5656    7.2954 C   0  0  0  0  0  0  0  0  0  0  0  0
    8.8759    3.9345    7.6874 C   0  0  0  0  0  0  0  0  0  0  0  0
    9.6669    4.4349    8.7026 C   0  0  0  0  0  0  0  0  0  0  0  0
    9.2733    5.5969    9.4046 C   0  0  0  0  0  0  0  0  0  0  0  0
   10.1020    6.0061   10.3816 O   0  0  0  0  0  0  0  0  0  0  0  0
    9.7906    7.1639   11.1342 C   0  0  0  0  0  0  0  0  0  0  0  0
    8.0729    6.2399    9.0474 C   0  0  0  0  0  0  0  0  0  0  0  0
    7.2942    5.7397    8.0107 C   0  0  0  0  0  0  0  0  0  0  0  0
    5.9363    4.7543    5.3994 C   0  0  0  0  0  0  0  0  0  0  0  0
    5.8124    6.0903    5.6117 N   0  0  0  0  0  0  0  0  0  0  0  0
    4.9948    6.8150    4.8094 C   0  0  0  0  0  0  0  0  0  0  0  0
    4.8616    8.2472    5.1885 C   0  0  0  0  0  0  0  0  0  0  0  0
    5.9873    8.9335    5.6886 C   0  0  0  0  0  0  0  0  0  0  0  0
    5.8983   10.2675    6.0886 C   0  0  0  0  0  0  0  0  0  0  0  0
    4.6759   10.9448    6.0212 C   0  0  0  0  0  0  0  0  0  0  0  0
    3.5441   10.2690    5.5521 C   0  0  0  0  0  0  0  0  0  0  0  0
    3.6343    8.9381    5.1411 C   0  0  0  0  0  0  0  0  0  0  0  0
    4.3284    6.1987    3.7286 C   0  0  0  0  0  0  0  0  0  0  0  0
    3.5438    6.9327    2.6954 C   0  0  0  0  0  0  0  0  0  0  0  0
    4.0440    8.0870    2.0640 C   0  0  0  0  0  0  0  0  0  0  0  0
    3.3148    8.7287    1.0611 C   0  0  0  0  0  0  0  0  0  0  0  0
    2.0671    8.2342    0.6671 C   0  0  0  0  0  0  0  0  0  0  0  0
    1.5610    7.0830    1.2799 C   0  0  0  0  0  0  0  0  0  0  0  0
    2.2960    6.4353    2.2746 C   0  0  0  0  0  0  0  0  0  0  0  0
    4.3930    4.8598    3.5445 N   0  0  0  0  0  0  0  0  0  0  0  0
    5.1855    4.1152    4.3637 C   0  0  0  0  0  0  0  0  0  0  0  0
    5.1499    0.6871    2.6315 C   0  0  0  0  0  0  0  0  0  0  0  0
    4.5306   -0.0477    1.6408 C   0  0  0  0  0  0  0  0  0  0  0  0
    1.4093   -0.7360   -1.3228 H   0  0  0  0  0  0  0  0  0  0  0  0
    1.8100    1.0047   -1.1580 H   0  0  0  0  0  0  0  0  0  0  0  0
    0.8006    0.1907    0.0873 H   0  0  0  0  0  0  0  0  0  0  0  0
    1.9422    2.0929    0.9559 H   0  0  0  0  0  0  0  0  0  0  0  0
    3.1055    3.4030    2.6856 H   0  0  0  0  0  0  0  0  0  0  0  0
    6.2497    0.8831    4.9282 H   0  0  0  0  0  0  0  0  0  0  0  0
    7.5321    1.9699    6.6575 H   0  0  0  0  0  0  0  0  0  0  0  0
    9.2232    3.0519    7.1491 H   0  0  0  0  0  0  0  0  0  0  0  0
   10.6087    3.9572    8.9795 H   0  0  0  0  0  0  0  0  0  0  0  0
   10.6069    7.2916   11.8568 H   0  0  0  0  0  0  0  0  0  0  0  0
    8.8387    7.0477   11.6803 H   0  0  0  0  0  0  0  0  0  0  0  0
    9.7310    8.0597   10.4926 H   0  0  0  0  0  0  0  0  0  0  0  0
    7.7385    7.1349    9.5726 H   0  0  0  0  0  0  0  0  0  0  0  0
    6.3797    6.2508    7.7221 H   0  0  0  0  0  0  0  0  0  0  0  0
    6.9355    8.3967    5.7509 H   0  0  0  0  0  0  0  0  0  0  0  0
    6.7896   10.7836    6.4570 H   0  0  0  0  0  0  0  0  0  0  0  0
    4.6033   11.9882    6.3393 H   0  0  0  0  0  0  0  0  0  0  0  0
    2.5786   10.7807    5.5125 H   0  0  0  0  0  0  0  0  0  0  0  0
    2.7378    8.4221    4.7944 H   0  0  0  0  0  0  0  0  0  0  0  0
    5.0211    8.4768    2.3558 H   0  0  0  0  0  0  0  0  0  0  0  0
    3.7275    9.6192    0.5793 H   0  0  0  0  0  0  0  0  0  0  0  0
    1.4957    8.7394   -0.1161 H   0  0  0  0  0  0  0  0  0  0  0  0
    0.5863    6.6874    0.9804 H   0  0  0  0  0  0  0  0  0  0  0  0
    1.8999    5.5370    2.7527 H   0  0  0  0  0  0  0  0  0  0  0  0
    6.0694    0.2893    3.0605 H   0  0  0  0  0  0  0  0  0  0  0  0
    4.9337   -1.0061    1.3079 H   0  0  0  0  0  0  0  0  0  0  0  0
  1  2  1  0
  1 39  1  0
  1 40  1  0
  1 41  1  0
  2  3  1  0
  3  4  2  0
  3 38  1  0
  4  5  1  0
  4 42  1  0
  5  6  2  0
  5 43  1  0
  6  7  1  0
  6 37  1  0
  7  8  2  0
  7 36  1  0
  8  9  1  0
  8 44  1  0
  9 10  2  0
  9 45  1  0
 10 11  1  0
 10 19  1  0
 11 12  2  0
 11 18  1  0
 12 13  1  0
 12 46  1  0
 13 14  2  0
 13 47  1  0
 14 15  1  0
 14 17  1  0
 15 16  1  0
 16 48  1  0
 16 49  1  0
 16 50  1  0
 17 18  2  0
 17 51  1  0
 18 52  1  0
 19 20  1  0
 19 36  2  0
 20 21  2  0
 21 22  1  0
 21 28  1  0
 22 23  2  0
 22 27  1  0
 23 24  1  0
 23 53  1  0
 24 25  2  0
 24 54  1  0
 25 26  1  0
 25 55  1  0
 26 27  2  0
 26 56  1  0
 27 57  1  0
 28 29  1  0
 28 35  2  0
 29 30  2  0
 29 34  1  0
 30 31  1  0
 30 58  1  0
 31 32  2  0
 31 59  1  0
 32 33  1  0
 32 60  1  0
 33 34  2  0
 33 61  1  0
 34 62  1  0
 35 36  1  0
 37 38  2  0
 37 63  1  0
 38 64  1  0
M  END

