
     RDKit          3D

 65 69  0  0  0  0  0  0  0  0999 V2000
    5.8918    4.5277   -3.9296 C   0  0  0  0  0  0  0  0  0  0  0  0
    6.0938    3.0740   -3.5857 C   0  0  0  0  0  0  0  0  0  0  0  0
    7.0176    2.2886   -4.2951 C   0  0  0  0  0  0  0  0  0  0  0  0
    7.2475    0.9552   -3.9553 C   0  0  0  0  0  0  0  0  0  0  0  0
    6.5415    0.3990   -2.8866 C   0  0  0  0  0  0  0  0  0  0  0  0
    6.7988   -1.3161   -2.4530 S   0  0  1  0  0  0  0  0  0  0  0  0
    5.5572   -1.8144   -1.8514 O   0  0  0  0  0  0  0  0  0  0  0  0
    7.4198   -1.9721   -3.6089 O   0  0  0  0  0  0  0  0  0  0  0  0
    7.9252   -1.2971   -1.1448 N   0  0  0  0  0  0  0  0  0  0  0  0
    9.2573   -1.7519   -1.3470 C   0  0  0  0  0  0  0  0  0  0  0  0
   10.3211   -0.8938   -1.6167 C   0  0  0  0  0  0  0  0  0  0  0  0
   10.4467    0.5498   -1.6698 C   0  0  0  0  0  0  0  0  0  0  0  0
    9.5452    1.4778   -1.2647 C   0  0  0  0  0  0  0  0  0  0  0  0
    9.7274    2.9315   -1.2936 C   0  0  0  0  0  0  0  0  0  0  0  0
    8.7531    3.7504   -0.6834 C   0  0  0  0  0  0  0  0  0  0  0  0
    8.8793    5.1405   -0.6653 C   0  0  0  0  0  0  0  0  0  0  0  0
    9.9837    5.7539   -1.2643 C   0  0  0  0  0  0  0  0  0  0  0  0
   10.9578    4.9589   -1.8817 C   0  0  0  0  0  0  0  0  0  0  0  0
   10.8325    3.5712   -1.8977 C   0  0  0  0  0  0  0  0  0  0  0  0
   11.7788   -1.8286   -1.8457 S   0  0  0  0  0  0  0  0  0  0  0  0
   10.9897   -3.3437   -1.4745 C   0  0  0  0  0  0  0  0  0  0  0  0
   11.7809   -4.5574   -1.4922 C   0  0  0  0  0  0  0  0  0  0  0  0
   13.1457   -4.6868   -1.3141 C   0  0  0  0  0  0  0  0  0  0  0  0
   13.6412   -6.0081   -1.4493 C   0  0  0  0  0  0  0  0  0  0  0  0
   12.6442   -6.9256   -1.7585 C   0  0  0  0  0  0  0  0  0  0  0  0
   12.7633   -8.2757   -1.9803 N   0  0  0  0  0  0  0  0  0  0  0  0
   11.5770   -9.1087   -2.0105 C   0  0  0  0  0  0  0  0  0  0  0  0
   14.0436   -8.8948   -1.7014 C   0  0  0  0  0  0  0  0  0  0  0  0
   11.0780   -6.1373   -1.8513 S   0  0  0  0  0  0  0  0  0  0  0  0
    9.6323   -3.1370   -1.2436 C   0  0  0  0  0  0  0  0  0  0  0  0
    8.6835   -4.2076   -0.8332 C   0  0  0  0  0  0  0  0  0  0  0  0
    7.6215   -4.6370   -1.6457 C   0  0  0  0  0  0  0  0  0  0  0  0
    6.7762   -5.6432   -1.1757 C   0  0  0  0  0  0  0  0  0  0  0  0
    7.0168   -6.1878    0.0880 C   0  0  0  0  0  0  0  0  0  0  0  0
    8.0176   -5.7882    0.8784 N   0  0  0  0  0  0  0  0  0  0  0  0
    8.8210   -4.8270    0.4262 C   0  0  0  0  0  0  0  0  0  0  0  0
    5.5985    1.1455   -2.1745 C   0  0  0  0  0  0  0  0  0  0  0  0
    5.3843    2.4775   -2.5288 C   0  0  0  0  0  0  0  0  0  0  0  0
    6.0575    4.7180   -5.0006 H   0  0  0  0  0  0  0  0  0  0  0  0
    6.6072    5.1559   -3.3704 H   0  0  0  0  0  0  0  0  0  0  0  0
    4.8788    4.8700   -3.6696 H   0  0  0  0  0  0  0  0  0  0  0  0
    7.5685    2.7289   -5.1305 H   0  0  0  0  0  0  0  0  0  0  0  0
    7.9570    0.3431   -4.5138 H   0  0  0  0  0  0  0  0  0  0  0  0
    7.4401   -1.7540   -0.3709 H   0  0  0  0  0  0  0  0  0  0  0  0
   11.4163    0.8980   -2.0423 H   0  0  0  0  0  0  0  0  0  0  0  0
    8.5945    1.1299   -0.8554 H   0  0  0  0  0  0  0  0  0  0  0  0
    7.8858    3.2786   -0.2141 H   0  0  0  0  0  0  0  0  0  0  0  0
    8.1123    5.7484   -0.1777 H   0  0  0  0  0  0  0  0  0  0  0  0
   10.0864    6.8419   -1.2525 H   0  0  0  0  0  0  0  0  0  0  0  0
   11.8233    5.4278   -2.3574 H   0  0  0  0  0  0  0  0  0  0  0  0
   11.6018    2.9764   -2.3949 H   0  0  0  0  0  0  0  0  0  0  0  0
   13.7829   -3.8355   -1.0665 H   0  0  0  0  0  0  0  0  0  0  0  0
   14.6877   -6.2732   -1.3105 H   0  0  0  0  0  0  0  0  0  0  0  0
   10.8210   -8.6746   -2.6849 H   0  0  0  0  0  0  0  0  0  0  0  0
   11.1090   -9.2368   -1.0136 H   0  0  0  0  0  0  0  0  0  0  0  0
   11.8384  -10.1017   -2.4026 H   0  0  0  0  0  0  0  0  0  0  0  0
   14.8495   -8.3795   -2.2486 H   0  0  0  0  0  0  0  0  0  0  0  0
   14.0228   -9.9397   -2.0401 H   0  0  0  0  0  0  0  0  0  0  0  0
   14.3026   -8.8810   -0.6235 H   0  0  0  0  0  0  0  0  0  0  0  0
    7.4689   -4.1872   -2.6283 H   0  0  0  0  0  0  0  0  0  0  0  0
    5.9399   -5.9991   -1.7819 H   0  0  0  0  0  0  0  0  0  0  0  0
    6.3686   -6.9804    0.4816 H   0  0  0  0  0  0  0  0  0  0  0  0
    9.6362   -4.5136    1.0895 H   0  0  0  0  0  0  0  0  0  0  0  0
    5.0291    0.6782   -1.3692 H   0  0  0  0  0  0  0  0  0  0  0  0
    4.6445    3.0650   -1.9781 H   0  0  0  0  0  0  0  0  0  0  0  0
  1  2  1  0
  1 39  1  0
  1 40  1  0
  1 41  1  0
  2  3  2  0
  2 38  1  0
  3  4  1  0
  3 42  1  0
  4  5  2  0
  4 43  1  0
  5  6  1  0
  5 37  1  0
  6  7  2  0
  6  8  2  0
  6  9  1  1
  9 10  1  0
  9 44  1  0
 10 11  2  0
 10 30  1  0
 11 12  1  0
 11 20  1  0
 12 13  2  0
 12 45  1  0
 13 14  1  0
 13 46  1  0
 14 15  2  0
 14 19  1  0
 15 16  1  0
 15 47  1  0
 16 17  2  0
 16 48  1  0
 17 18  1  0
 17 49  1  0
 18 19  2  0
 18 50  1  0
 19 51  1  0
 20 21  1  0
 21 22  1  0
 21 30  2  0
 22 23  2  0
 22 29  1  0
 23 24  1  0
 23 52  1  0
 24 25  2  0
 24 53  1  0
 25 26  1  0
 25 29  1  0
 26 27  1  0
 26 28  1  0
 27 54  1  0
 27 55  1  0
 27 56  1  0
 28 57  1  0
 28 58  1  0
 28 59  1  0
 30 31  1  0
 31 32  2  0
 31 36  1  0
 32 33  1  0
 32 60  1  0
 33 34  2  0
 33 61  1  0
 34 35  1  0
 34 62  1  0
 35 36  2  0
 36 63  1  0
 37 38  2  0
 37 64  1  0
 38 65  1  0
M  END

