
     RDKit          3D

 71 73  0  0  0  0  0  0  0  0999 V2000
    0.6694    0.2760    0.1952 C   0  0  0  0  0  0  0  0  0  0  0  0
    1.9561   -0.5036   -0.0952 C   0  0  1  0  0  0  0  0  0  0  0  0
    2.7669   -0.7862    1.1739 C   0  0  0  0  0  0  0  0  0  0  0  0
    1.6491   -1.8029   -0.8418 C   0  0  0  0  0  0  0  0  0  0  0  0
    2.7838    0.2347   -1.0579 O   0  0  0  0  0  0  0  0  0  0  0  0
    3.3606    1.4034   -0.7664 C   0  0  0  0  0  0  0  0  0  0  0  0
    3.1260    2.0768    0.2171 O   0  0  0  0  0  0  0  0  0  0  0  0
    4.2819    1.8346   -1.8504 C   0  0  0  0  0  0  0  0  0  0  0  0
    4.4050    3.1447   -2.2596 C   0  0  0  0  0  0  0  0  0  0  0  0
    3.8422    4.3719   -1.7690 C   0  0  0  0  0  0  0  0  0  0  0  0
    4.0344    5.5891   -2.3343 C   0  0  0  0  0  0  0  0  0  0  0  0
    3.5048    6.8683   -1.8603 C   0  0  0  0  0  0  0  0  0  0  0  0
    3.7756    8.0372   -2.6026 C   0  0  0  0  0  0  0  0  0  0  0  0
    3.2927    9.2821   -2.1971 C   0  0  0  0  0  0  0  0  0  0  0  0
    2.5252    9.3913   -1.0342 C   0  0  0  0  0  0  0  0  0  0  0  0
    2.2477    8.2420   -0.2825 C   0  0  0  0  0  0  0  0  0  0  0  0
    2.7294    6.9991   -0.6869 C   0  0  0  0  0  0  0  0  0  0  0  0
    5.2243    3.1843   -3.3626 O   0  0  0  0  0  0  0  0  0  0  0  0
    5.6544    1.9251   -3.6442 C   0  0  0  0  0  0  0  0  0  0  0  0
    6.5219    1.8491   -4.6962 N   0  0  0  0  0  0  0  0  0  0  0  0
    6.2981    0.9626   -5.8569 C   0  0  1  0  0  0  0  0  0  0  0  0
    5.1090    1.4170   -6.7300 C   0  0  0  0  0  0  0  0  0  0  0  0
    5.3957    2.7121   -7.5021 C   0  0  0  0  0  0  0  0  0  0  0  0
    6.6790    2.5968   -8.3367 C   0  0  0  0  0  0  0  0  0  0  0  0
    7.8763    2.1761   -7.4731 C   0  0  0  0  0  0  0  0  0  0  0  0
    7.5857    0.8839   -6.6932 C   0  0  0  0  0  0  0  0  0  0  0  0
    5.1187    1.0303   -2.7212 C   0  0  0  0  0  0  0  0  0  0  0  0
    5.5585   -0.3393   -2.3912 C   0  0  0  0  0  0  0  0  0  0  0  0
    5.4109   -0.8349   -1.2937 O   0  0  0  0  0  0  0  0  0  0  0  0
    6.1765   -0.9618   -3.4197 O   0  0  0  0  0  0  0  0  0  0  0  0
    6.8095   -2.2797   -3.2601 C   0  0  1  0  0  0  0  0  0  0  0  0
    5.7546   -3.3334   -2.9045 C   0  0  0  0  0  0  0  0  0  0  0  0
    7.3943   -2.5617   -4.6461 C   0  0  0  0  0  0  0  0  0  0  0  0
    7.9275   -2.2019   -2.2147 C   0  0  0  0  0  0  0  0  0  0  0  0
    0.0037   -0.3318    0.8284 H   0  0  0  0  0  0  0  0  0  0  0  0
    0.1363    0.5013   -0.7419 H   0  0  0  0  0  0  0  0  0  0  0  0
    0.8876    1.2182    0.7136 H   0  0  0  0  0  0  0  0  0  0  0  0
    2.2052   -1.4754    1.8241 H   0  0  0  0  0  0  0  0  0  0  0  0
    2.9670    0.1371    1.7326 H   0  0  0  0  0  0  0  0  0  0  0  0
    3.7269   -1.2524    0.9076 H   0  0  0  0  0  0  0  0  0  0  0  0
    1.0152   -2.4574   -0.2243 H   0  0  0  0  0  0  0  0  0  0  0  0
    2.5813   -2.3356   -1.0803 H   0  0  0  0  0  0  0  0  0  0  0  0
    1.1199   -1.5913   -1.7836 H   0  0  0  0  0  0  0  0  0  0  0  0
    3.2466    4.2460   -0.8632 H   0  0  0  0  0  0  0  0  0  0  0  0
    4.6488    5.6427   -3.2387 H   0  0  0  0  0  0  0  0  0  0  0  0
    4.3763    7.9590   -3.5132 H   0  0  0  0  0  0  0  0  0  0  0  0
    3.5171   10.1717   -2.7917 H   0  0  0  0  0  0  0  0  0  0  0  0
    2.1461   10.3644   -0.7123 H   0  0  0  0  0  0  0  0  0  0  0  0
    1.6506    8.3182    0.6300 H   0  0  0  0  0  0  0  0  0  0  0  0
    2.5051    6.1178   -0.0823 H   0  0  0  0  0  0  0  0  0  0  0  0
    6.8503    2.7758   -4.9543 H   0  0  0  0  0  0  0  0  0  0  0  0
    6.0814   -0.0270   -5.4417 H   0  0  0  0  0  0  0  0  0  0  0  0
    4.2089    1.5241   -6.1019 H   0  0  0  0  0  0  0  0  0  0  0  0
    4.8899    0.6070   -7.4492 H   0  0  0  0  0  0  0  0  0  0  0  0
    5.4928    3.5538   -6.7913 H   0  0  0  0  0  0  0  0  0  0  0  0
    4.5378    2.9638   -8.1471 H   0  0  0  0  0  0  0  0  0  0  0  0
    6.8919    3.5492   -8.8504 H   0  0  0  0  0  0  0  0  0  0  0  0
    6.5262    1.8432   -9.1315 H   0  0  0  0  0  0  0  0  0  0  0  0
    8.1281    2.9942   -6.7714 H   0  0  0  0  0  0  0  0  0  0  0  0
    8.7747    2.0400   -8.0977 H   0  0  0  0  0  0  0  0  0  0  0  0
    8.4308    0.6247   -6.0354 H   0  0  0  0  0  0  0  0  0  0  0  0
    7.4713    0.0531   -7.4110 H   0  0  0  0  0  0  0  0  0  0  0  0
    4.9353   -3.3177   -3.6403 H   0  0  0  0  0  0  0  0  0  0  0  0
    5.3364   -3.1566   -1.9063 H   0  0  0  0  0  0  0  0  0  0  0  0
    6.2126   -4.3348   -2.9256 H   0  0  0  0  0  0  0  0  0  0  0  0
    6.6005   -2.5924   -5.4082 H   0  0  0  0  0  0  0  0  0  0  0  0
    7.9083   -3.5348   -4.6471 H   0  0  0  0  0  0  0  0  0  0  0  0
    8.1217   -1.7865   -4.9303 H   0  0  0  0  0  0  0  0  0  0  0  0
    7.5250   -1.9971   -1.2151 H   0  0  0  0  0  0  0  0  0  0  0  0
    8.6434   -1.4080   -2.4790 H   0  0  0  0  0  0  0  0  0  0  0  0
    8.4734   -3.1580   -2.1863 H   0  0  0  0  0  0  0  0  0  0  0  0
  1  2  1  0
  1 35  1  0
  1 36  1  0
  1 37  1  0
  2  3  1  0
  2  4  1  0
  2  5  1  6
  3 38  1  0
  3 39  1  0
  3 40  1  0
  4 41  1  0
  4 42  1  0
  4 43  1  0
  5  6  1  0
  6  7  2  0
  6  8  1  0
  8  9  2  0
  8 27  1  0
  9 10  1  0
  9 18  1  0
 10 11  2  0
 10 44  1  0
 11 12  1  0
 11 45  1  0
 12 13  2  0
 12 17  1  0
 13 14  1  0
 13 46  1  0
 14 15  2  0
 14 47  1  0
 15 16  1  0
 15 48  1  0
 16 17  2  0
 16 49  1  0
 17 50  1  0
 18 19  1  0
 19 20  1  0
 19 27  2  0
 20 21  1  0
 20 51  1  0
 21 22  1  0
 21 26  1  0
 21 52  1  1
 22 23  1  0
 22 53  1  0
 22 54  1  0
 23 24  1  0
 23 55  1  0
 23 56  1  0
 24 25  1  0
 24 57  1  0
 24 58  1  0
 25 26  1  0
 25 59  1  0
 25 60  1  0
 26 61  1  0
 26 62  1  0
 27 28  1  0
 28 29  2  0
 28 30  1  0
 31 30  1  6
 31 32  1  0
 31 33  1  0
 31 34  1  0
 32 63  1  0
 32 64  1  0
 32 65  1  0
 33 66  1  0
 33 67  1  0
 33 68  1  0
 34 69  1  0
 34 70  1  0
 34 71  1  0
M  END

