
     RDKit          3D

119127  0  0  0  0  0  0  0  0999 V2000
    4.6182   -2.2199   -1.2306 C   0  0  0  0  0  0  0  0  0  0  0  0
    5.1018   -0.7691   -1.2812 C   0  0  0  0  0  0  0  0  0  0  0  0
    6.5906   -0.6544   -1.6199 C   0  0  0  0  0  0  0  0  0  0  0  0
    7.1764    0.7840   -1.6948 C   0  0  2  0  0  0  0  0  0  0  0  0
    8.6884    0.6750   -2.0463 C   0  0  0  0  0  0  0  0  0  0  0  0
    9.4605    1.9921   -2.1673 C   0  0  0  0  0  0  0  0  0  0  0  0
   10.9359    1.7789   -2.5123 C   0  0  0  0  0  0  0  0  0  0  0  0
    6.9499    1.5605   -0.3964 C   0  0  0  0  0  0  0  0  0  0  0  0
    7.3905    1.2628    0.8885 C   0  0  0  0  0  0  0  0  0  0  0  0
    7.0624    2.1275    1.9463 C   0  0  0  0  0  0  0  0  0  0  0  0
    6.2988    3.2817    1.7123 C   0  0  0  0  0  0  0  0  0  0  0  0
    5.8516    3.5916    0.4269 C   0  0  0  0  0  0  0  0  0  0  0  0
    6.1773    2.7275   -0.6340 C   0  0  0  0  0  0  0  0  0  0  0  0
    5.8564    2.7895   -2.0481 C   0  0  0  0  0  0  0  0  0  0  0  0
    5.1308    3.7319   -2.8032 C   0  0  0  0  0  0  0  0  0  0  0  0
    4.9795    3.5437   -4.1673 C   0  0  0  0  0  0  0  0  0  0  0  0
    5.5298    2.4129   -4.8493 C   0  0  0  0  0  0  0  0  0  0  0  0
    5.3554    2.2278   -6.2805 C   0  0  0  0  0  0  0  0  0  0  0  0
    4.9425    3.3066   -7.1309 C   0  0  0  0  0  0  0  0  0  0  0  0
    4.7832    3.1592   -8.4940 C   0  0  0  0  0  0  0  0  0  0  0  0
    5.0237    1.8945   -9.0927 C   0  0  0  0  0  0  0  0  0  0  0  0
    5.4308    0.7985   -8.2641 C   0  0  0  0  0  0  0  0  0  0  0  0
    5.5963    0.9602   -6.9081 C   0  0  0  0  0  0  0  0  0  0  0  0
    5.6151   -0.4664   -9.1078 C   0  0  1  0  0  0  0  0  0  0  0  0
    7.0676   -1.0142   -9.0253 C   0  0  0  0  0  0  0  0  0  0  0  0
    8.1854   -0.0434   -9.4157 C   0  0  0  0  0  0  0  0  0  0  0  0
    9.5760   -0.6733   -9.3139 C   0  0  0  0  0  0  0  0  0  0  0  0
    4.6408   -1.5980   -8.6726 C   0  0  0  0  0  0  0  0  0  0  0  0
    3.1485   -1.2552   -8.6845 C   0  0  0  0  0  0  0  0  0  0  0  0
    2.2711   -2.4292   -8.2453 C   0  0  0  0  0  0  0  0  0  0  0  0
    5.2835    0.0620  -10.5066 C   0  0  0  0  0  0  0  0  0  0  0  0
    5.2828   -0.6157  -11.7035 C   0  0  0  0  0  0  0  0  0  0  0  0
    4.9303    0.0450  -12.9281 C   0  0  0  0  0  0  0  0  0  0  0  0
    4.9353   -0.6575  -14.2006 C   0  0  0  0  0  0  0  0  0  0  0  0
    4.3328   -0.0963  -15.3713 C   0  0  0  0  0  0  0  0  0  0  0  0
    4.3323   -0.7510  -16.5919 C   0  0  0  0  0  0  0  0  0  0  0  0
    4.9462   -2.0144  -16.7037 C   0  0  0  0  0  0  0  0  0  0  0  0
    5.5492   -2.5999  -15.5580 C   0  0  0  0  0  0  0  0  0  0  0  0
    5.5439   -1.9467  -14.3424 C   0  0  0  0  0  0  0  0  0  0  0  0
    6.1554   -3.9620  -15.9078 C   0  0  1  0  0  0  0  0  0  0  0  0
    7.6899   -3.9970  -15.6566 C   0  0  0  0  0  0  0  0  0  0  0  0
    8.5252   -2.9332  -16.3744 C   0  0  0  0  0  0  0  0  0  0  0  0
   10.0183   -3.0463  -16.0597 C   0  0  0  0  0  0  0  0  0  0  0  0
    5.5031   -5.1133  -15.0893 C   0  0  0  0  0  0  0  0  0  0  0  0
    3.9819   -5.2527  -15.1964 C   0  0  0  0  0  0  0  0  0  0  0  0
    3.4359   -6.4098  -14.3572 C   0  0  0  0  0  0  0  0  0  0  0  0
    5.8176   -4.0624  -17.3959 C   0  0  0  0  0  0  0  0  0  0  0  0
    6.1105   -5.0855  -18.2907 C   0  0  0  0  0  0  0  0  0  0  0  0
    5.6972   -4.9688  -19.6286 C   0  0  0  0  0  0  0  0  0  0  0  0
    4.9958   -3.8323  -20.0609 C   0  0  0  0  0  0  0  0  0  0  0  0
    4.6969   -2.7983  -19.1723 C   0  0  0  0  0  0  0  0  0  0  0  0
    5.1090   -2.9121  -17.8322 C   0  0  0  0  0  0  0  0  0  0  0  0
    4.5829    1.4345  -12.8376 C   0  0  0  0  0  0  0  0  0  0  0  0
    4.5848    2.1260  -11.6433 C   0  0  0  0  0  0  0  0  0  0  0  0
    4.9368    1.4507  -10.4451 C   0  0  0  0  0  0  0  0  0  0  0  0
    6.2589    1.4696   -4.0562 C   0  0  0  0  0  0  0  0  0  0  0  0
    6.4198    1.6588   -2.6983 C   0  0  0  0  0  0  0  0  0  0  0  0
    3.5462   -2.2779   -0.9834 H   0  0  0  0  0  0  0  0  0  0  0  0
    5.1657   -2.8017   -0.4697 H   0  0  0  0  0  0  0  0  0  0  0  0
    4.7627   -2.7285   -2.1989 H   0  0  0  0  0  0  0  0  0  0  0  0
    4.9061   -0.2835   -0.3101 H   0  0  0  0  0  0  0  0  0  0  0  0
    4.5104   -0.2105   -2.0262 H   0  0  0  0  0  0  0  0  0  0  0  0
    6.7817   -1.1499   -2.5892 H   0  0  0  0  0  0  0  0  0  0  0  0
    7.1773   -1.2220   -0.8750 H   0  0  0  0  0  0  0  0  0  0  0  0
    8.7776    0.1146   -2.9947 H   0  0  0  0  0  0  0  0  0  0  0  0
    9.1701    0.0413   -1.2795 H   0  0  0  0  0  0  0  0  0  0  0  0
    9.3815    2.5540   -1.2213 H   0  0  0  0  0  0  0  0  0  0  0  0
    8.9911    2.6249   -2.9393 H   0  0  0  0  0  0  0  0  0  0  0  0
   11.4486    1.1796   -1.7409 H   0  0  0  0  0  0  0  0  0  0  0  0
   11.4718    2.7377   -2.5974 H   0  0  0  0  0  0  0  0  0  0  0  0
   11.0528    1.2474   -3.4720 H   0  0  0  0  0  0  0  0  0  0  0  0
    7.9865    0.3666    1.0832 H   0  0  0  0  0  0  0  0  0  0  0  0
    7.4048    1.9002    2.9591 H   0  0  0  0  0  0  0  0  0  0  0  0
    6.0524    3.9440    2.5464 H   0  0  0  0  0  0  0  0  0  0  0  0
    5.2570    4.4916    0.2511 H   0  0  0  0  0  0  0  0  0  0  0  0
    4.6806    4.6039   -2.3219 H   0  0  0  0  0  0  0  0  0  0  0  0
    4.3911    4.2713   -4.7272 H   0  0  0  0  0  0  0  0  0  0  0  0
    4.7787    4.2929   -6.6956 H   0  0  0  0  0  0  0  0  0  0  0  0
    4.4834    4.0143   -9.1049 H   0  0  0  0  0  0  0  0  0  0  0  0
    5.8810    0.1022   -6.2970 H   0  0  0  0  0  0  0  0  0  0  0  0
    7.1281   -1.9135   -9.6653 H   0  0  0  0  0  0  0  0  0  0  0  0
    7.2391   -1.3705   -7.9932 H   0  0  0  0  0  0  0  0  0  0  0  0
    8.1388    0.8505   -8.7705 H   0  0  0  0  0  0  0  0  0  0  0  0
    8.0187    0.3143  -10.4460 H   0  0  0  0  0  0  0  0  0  0  0  0
    9.7918   -1.0125   -8.2864 H   0  0  0  0  0  0  0  0  0  0  0  0
   10.3636    0.0424   -9.5984 H   0  0  0  0  0  0  0  0  0  0  0  0
    9.6708   -1.5511   -9.9756 H   0  0  0  0  0  0  0  0  0  0  0  0
    4.9302   -1.9242   -7.6570 H   0  0  0  0  0  0  0  0  0  0  0  0
    4.8183   -2.4695   -9.3288 H   0  0  0  0  0  0  0  0  0  0  0  0
    2.8526   -0.9339   -9.6976 H   0  0  0  0  0  0  0  0  0  0  0  0
    2.9639   -0.3916   -8.0232 H   0  0  0  0  0  0  0  0  0  0  0  0
    2.4020   -3.3013   -8.9083 H   0  0  0  0  0  0  0  0  0  0  0  0
    1.2029   -2.1601   -8.2593 H   0  0  0  0  0  0  0  0  0  0  0  0
    2.5174   -2.7557   -7.2207 H   0  0  0  0  0  0  0  0  0  0  0  0
    5.5276   -1.6786  -11.7141 H   0  0  0  0  0  0  0  0  0  0  0  0
    3.8306    0.8691  -15.3051 H   0  0  0  0  0  0  0  0  0  0  0  0
    3.8513   -0.2868  -17.4567 H   0  0  0  0  0  0  0  0  0  0  0  0
    6.0379   -2.4084  -13.4864 H   0  0  0  0  0  0  0  0  0  0  0  0
    8.0585   -4.9999  -15.9394 H   0  0  0  0  0  0  0  0  0  0  0  0
    7.8571   -3.9150  -14.5671 H   0  0  0  0  0  0  0  0  0  0  0  0
    8.1653   -1.9295  -16.0916 H   0  0  0  0  0  0  0  0  0  0  0  0
    8.3720   -3.0170  -17.4637 H   0  0  0  0  0  0  0  0  0  0  0  0
   10.2131   -2.9297  -14.9801 H   0  0  0  0  0  0  0  0  0  0  0  0
   10.6001   -2.2730  -16.5863 H   0  0  0  0  0  0  0  0  0  0  0  0
   10.4214   -4.0279  -16.3619 H   0  0  0  0  0  0  0  0  0  0  0  0
    5.7811   -4.9756  -14.0285 H   0  0  0  0  0  0  0  0  0  0  0  0
    5.9769   -6.0621  -15.4006 H   0  0  0  0  0  0  0  0  0  0  0  0
    3.6985   -5.3995  -16.2524 H   0  0  0  0  0  0  0  0  0  0  0  0
    3.5024   -4.3112  -14.8796 H   0  0  0  0  0  0  0  0  0  0  0  0
    3.8678   -7.3753  -14.6709 H   0  0  0  0  0  0  0  0  0  0  0  0
    2.3411   -6.4914  -14.4488 H   0  0  0  0  0  0  0  0  0  0  0  0
    3.6699   -6.2782  -13.2870 H   0  0  0  0  0  0  0  0  0  0  0  0
    6.6572   -5.9749  -17.9646 H   0  0  0  0  0  0  0  0  0  0  0  0
    5.9236   -5.7685  -20.3384 H   0  0  0  0  0  0  0  0  0  0  0  0
    4.6812   -3.7574  -21.1052 H   0  0  0  0  0  0  0  0  0  0  0  0
    4.1511   -1.9156  -19.5152 H   0  0  0  0  0  0  0  0  0  0  0  0
    4.3340    1.9811  -13.7475 H   0  0  0  0  0  0  0  0  0  0  0  0
    4.3255    3.1874  -11.6266 H   0  0  0  0  0  0  0  0  0  0  0  0
    6.7245    0.6073   -4.5358 H   0  0  0  0  0  0  0  0  0  0  0  0
  1  2  1  0
  1 58  1  0
  1 59  1  0
  1 60  1  0
  2  3  1  0
  2 61  1  0
  2 62  1  0
  4  3  1  1
  3 63  1  0
  3 64  1  0
  4  5  1  0
  4  8  1  0
  4 57  1  0
  5  6  1  0
  5 65  1  0
  5 66  1  0
  6  7  1  0
  6 67  1  0
  6 68  1  0
  7 69  1  0
  7 70  1  0
  7 71  1  0
  8  9  2  0
  8 13  1  0
  9 10  1  0
  9 72  1  0
 10 11  2  0
 10 73  1  0
 11 12  1  0
 11 74  1  0
 12 13  2  0
 12 75  1  0
 13 14  1  0
 14 15  2  0
 14 57  1  0
 15 16  1  0
 15 76  1  0
 16 17  2  0
 16 77  1  0
 17 18  1  0
 17 56  1  0
 18 19  2  0
 18 23  1  0
 19 20  1  0
 19 78  1  0
 20 21  2  0
 20 79  1  0
 21 22  1  0
 21 55  1  0
 22 23  2  0
 22 24  1  0
 23 80  1  0
 24 25  1  6
 24 28  1  0
 24 31  1  0
 25 26  1  0
 25 81  1  0
 25 82  1  0
 26 27  1  0
 26 83  1  0
 26 84  1  0
 27 85  1  0
 27 86  1  0
 27 87  1  0
 28 29  1  0
 28 88  1  0
 28 89  1  0
 29 30  1  0
 29 90  1  0
 29 91  1  0
 30 92  1  0
 30 93  1  0
 30 94  1  0
 31 32  1  0
 31 55  2  0
 32 33  2  0
 32 95  1  0
 33 34  1  0
 33 53  1  0
 34 35  2  0
 34 39  1  0
 35 36  1  0
 35 96  1  0
 36 37  2  0
 36 97  1  0
 37 38  1  0
 37 52  1  0
 38 39  2  0
 38 40  1  0
 39 98  1  0
 40 41  1  6
 40 44  1  0
 40 47  1  0
 41 42  1  0
 41 99  1  0
 41100  1  0
 42 43  1  0
 42101  1  0
 42102  1  0
 43103  1  0
 43104  1  0
 43105  1  0
 44 45  1  0
 44106  1  0
 44107  1  0
 45 46  1  0
 45108  1  0
 45109  1  0
 46110  1  0
 46111  1  0
 46112  1  0
 47 48  1  0
 47 52  2  0
 48 49  2  0
 48113  1  0
 49 50  1  0
 49114  1  0
 50 51  2  0
 50115  1  0
 51 52  1  0
 51116  1  0
 53 54  2  0
 53117  1  0
 54 55  1  0
 54118  1  0
 56 57  2  0
 56119  1  0
M  END

