
     RDKit          3D

 44 48  0  0  0  0  0  0  0  0999 V2000
    2.5691   -2.3357    0.2702 C   0  0  0  0  0  0  0  0  0  0  0  0
    3.6895   -1.3247    0.1501 C   0  0  0  0  0  0  0  0  0  0  0  0
    3.9775   -1.1554   -1.2506 O   0  0  0  0  0  0  0  0  0  0  0  0
    5.0763   -0.4728   -1.5725 C   0  0  0  0  0  0  0  0  0  0  0  0
    5.7507    0.1479   -0.7834 O   0  0  0  0  0  0  0  0  0  0  0  0
    5.3676   -0.5845   -3.0452 C   0  0  0  0  0  0  0  0  0  0  0  0
    5.4397   -1.8110   -3.6531 C   0  0  0  0  0  0  0  0  0  0  0  0
    5.7090   -1.8991   -5.0466 C   0  0  0  0  0  0  0  0  0  0  0  0
    5.7302   -3.2525   -5.4419 C   0  0  0  0  0  0  0  0  0  0  0  0
    5.9585   -3.5719   -6.7707 C   0  0  0  0  0  0  0  0  0  0  0  0
    6.1654   -2.4915   -7.6676 C   0  0  0  0  0  0  0  0  0  0  0  0
    6.1475   -1.1571   -7.2698 C   0  0  0  0  0  0  0  0  0  0  0  0
    5.9119   -0.8250   -5.9089 C   0  0  0  0  0  0  0  0  0  0  0  0
    5.8625    0.4985   -5.2902 C   0  0  0  0  0  0  0  0  0  0  0  0
    6.0587    1.6629   -6.0298 C   0  0  0  0  0  0  0  0  0  0  0  0
    6.0235    2.9458   -5.4480 C   0  0  0  0  0  0  0  0  0  0  0  0
    6.2251    4.1384   -6.2068 C   0  0  0  0  0  0  0  0  0  0  0  0
    6.1878    5.3722   -5.5997 C   0  0  0  0  0  0  0  0  0  0  0  0
    5.9480    5.4820   -4.2000 C   0  0  0  0  0  0  0  0  0  0  0  0
    5.7499    4.3544   -3.4385 C   0  0  0  0  0  0  0  0  0  0  0  0
    5.7792    3.0559   -4.0345 C   0  0  0  0  0  0  0  0  0  0  0  0
    5.5780    1.8838   -3.2814 C   0  0  0  0  0  0  0  0  0  0  0  0
    5.6050    0.6078   -3.8575 C   0  0  0  0  0  0  0  0  0  0  0  0
    5.4970   -4.0342   -4.3079 N   0  0  0  0  0  0  0  0  0  0  0  0
    5.4724   -5.4767   -4.2690 C   0  0  0  0  0  0  0  0  0  0  0  0
    5.3295   -3.2331   -3.1598 C   0  0  0  0  0  0  0  0  0  0  0  0
    5.1673   -3.6709   -2.0400 O   0  0  0  0  0  0  0  0  0  0  0  0
    2.3253   -2.5021    1.3312 H   0  0  0  0  0  0  0  0  0  0  0  0
    2.8744   -3.2929   -0.1775 H   0  0  0  0  0  0  0  0  0  0  0  0
    1.6605   -1.9830   -0.2421 H   0  0  0  0  0  0  0  0  0  0  0  0
    4.6067   -1.6635    0.6558 H   0  0  0  0  0  0  0  0  0  0  0  0
    3.4197   -0.3451    0.5785 H   0  0  0  0  0  0  0  0  0  0  0  0
    5.9817   -4.6026   -7.1288 H   0  0  0  0  0  0  0  0  0  0  0  0
    6.3486   -2.7225   -8.7203 H   0  0  0  0  0  0  0  0  0  0  0  0
    6.3183   -0.3788   -8.0153 H   0  0  0  0  0  0  0  0  0  0  0  0
    6.2497    1.5900   -7.1025 H   0  0  0  0  0  0  0  0  0  0  0  0
    6.4106    4.0540   -7.2811 H   0  0  0  0  0  0  0  0  0  0  0  0
    6.3437    6.2781   -6.1910 H   0  0  0  0  0  0  0  0  0  0  0  0
    5.9235    6.4702   -3.7341 H   0  0  0  0  0  0  0  0  0  0  0  0
    5.5673    4.4336   -2.3635 H   0  0  0  0  0  0  0  0  0  0  0  0
    5.4197    1.9790   -2.2072 H   0  0  0  0  0  0  0  0  0  0  0  0
    6.4335   -5.9031   -4.6035 H   0  0  0  0  0  0  0  0  0  0  0  0
    4.6679   -5.8804   -4.9069 H   0  0  0  0  0  0  0  0  0  0  0  0
    5.2908   -5.7777   -3.2286 H   0  0  0  0  0  0  0  0  0  0  0  0
  1  2  1  0
  1 28  1  0
  1 29  1  0
  1 30  1  0
  2  3  1  0
  2 31  1  0
  2 32  1  0
  3  4  1  0
  4  5  2  0
  4  6  1  0
  6  7  2  0
  6 23  1  0
  7  8  1  0
  7 26  1  0
  8  9  2  0
  8 13  1  0
  9 10  1  0
  9 24  1  0
 10 11  2  0
 10 33  1  0
 11 12  1  0
 11 34  1  0
 12 13  2  0
 12 35  1  0
 13 14  1  0
 14 15  1  0
 14 23  2  0
 15 16  2  0
 15 36  1  0
 16 17  1  0
 16 21  1  0
 17 18  2  0
 17 37  1  0
 18 19  1  0
 18 38  1  0
 19 20  2  0
 19 39  1  0
 20 21  1  0
 20 40  1  0
 21 22  2  0
 22 23  1  0
 22 41  1  0
 24 25  1  0
 24 26  1  0
 25 42  1  0
 25 43  1  0
 25 44  1  0
 26 27  2  0
M  END

