
     RDKit          3D

 68 75  0  0  0  0  0  0  0  0999 V2000
   -1.8188    0.7573    0.8322 C   0  0  0  0  0  0  0  0  0  0  0  0
   -1.4653   -0.3626    0.0743 C   0  0  0  0  0  0  0  0  0  0  0  0
   -0.1209   -0.6629   -0.1592 C   0  0  0  0  0  0  0  0  0  0  0  0
    0.9040    0.1492    0.3643 C   0  0  0  0  0  0  0  0  0  0  0  0
    2.3268   -0.1438    0.1301 C   0  0  0  0  0  0  0  0  0  0  0  0
    3.2332    0.8245    0.2756 N   0  0  0  0  0  0  0  0  0  0  0  0
    4.4588    0.2769    0.0135 N   0  0  0  0  0  0  0  0  0  0  0  0
    5.6029    1.1072    0.0733 C   0  0  0  0  0  0  0  0  0  0  0  0
    5.4357    2.4801    0.3365 C   0  0  0  0  0  0  0  0  0  0  0  0
    6.5484    3.3175    0.4046 C   0  0  0  0  0  0  0  0  0  0  0  0
    7.8384    2.8113    0.2133 C   0  0  0  0  0  0  0  0  0  0  0  0
    7.9989    1.4482   -0.0497 C   0  0  0  0  0  0  0  0  0  0  0  0
    6.8976    0.5921   -0.1216 C   0  0  0  0  0  0  0  0  0  0  0  0
    4.3503   -1.0671   -0.3026 C   0  0  0  0  0  0  0  0  0  0  0  0
    5.3426   -1.8974   -0.6002 N   0  0  0  0  0  0  0  0  0  0  0  0
    4.9846   -3.1895   -0.8602 C   0  0  0  0  0  0  0  0  0  0  0  0
    5.9891   -4.1238   -1.2018 C   0  0  0  0  0  0  0  0  0  0  0  0
    5.7021   -5.4691   -1.4681 C   0  0  0  0  0  0  0  0  0  0  0  0
    4.3737   -5.8945   -1.3818 C   0  0  0  0  0  0  0  0  0  0  0  0
    4.0382   -7.2921   -1.6221 N   0  0  0  0  0  0  0  0  0  0  0  0
    3.1488   -7.5711   -2.6732 C   0  0  0  0  0  0  0  0  0  0  0  0
    2.2600   -8.6709   -2.5909 C   0  0  0  0  0  0  0  0  0  0  0  0
    1.3677   -8.9265   -3.6265 C   0  0  0  0  0  0  0  0  0  0  0  0
    1.3368   -8.0967   -4.7552 C   0  0  0  0  0  0  0  0  0  0  0  0
    2.2030   -6.9977   -4.8342 C   0  0  0  0  0  0  0  0  0  0  0  0
    3.0965   -6.7234   -3.8043 C   0  0  0  0  0  0  0  0  0  0  0  0
    4.6745   -8.3268   -0.9449 C   0  0  0  0  0  0  0  0  0  0  0  0
    5.0483   -9.4672   -1.6903 C   0  0  0  0  0  0  0  0  0  0  0  0
    5.7186  -10.5452   -1.1059 C   0  0  0  0  0  0  0  0  0  0  0  0
    6.0315  -10.5188    0.2435 C   0  0  0  0  0  0  0  0  0  0  0  0
    5.6750   -9.4041    1.0496 C   0  0  0  0  0  0  0  0  0  0  0  0
    5.9732   -9.4068    2.4386 C   0  0  0  0  0  0  0  0  0  0  0  0
    5.5996   -8.3520    3.2487 C   0  0  0  0  0  0  0  0  0  0  0  0
    4.9072   -7.2592    2.6909 C   0  0  0  0  0  0  0  0  0  0  0  0
    4.6122   -7.2190    1.3362 C   0  0  0  0  0  0  0  0  0  0  0  0
    4.9896   -8.2775    0.4738 C   0  0  0  0  0  0  0  0  0  0  0  0
    3.3373   -5.0140   -1.0658 C   0  0  0  0  0  0  0  0  0  0  0  0
    3.6034   -3.6427   -0.7920 C   0  0  0  0  0  0  0  0  0  0  0  0
    2.5827   -2.7202   -0.4641 C   0  0  0  0  0  0  0  0  0  0  0  0
    2.9567   -1.3785   -0.2311 C   0  0  0  0  0  0  0  0  0  0  0  0
    0.5319    1.2818    1.1187 C   0  0  0  0  0  0  0  0  0  0  0  0
   -0.8101    1.5797    1.3489 C   0  0  0  0  0  0  0  0  0  0  0  0
   -2.8708    0.9908    1.0158 H   0  0  0  0  0  0  0  0  0  0  0  0
   -2.2430   -1.0052   -0.3478 H   0  0  0  0  0  0  0  0  0  0  0  0
    0.1349   -1.5211   -0.7818 H   0  0  0  0  0  0  0  0  0  0  0  0
    4.4280    2.8649    0.4816 H   0  0  0  0  0  0  0  0  0  0  0  0
    6.4020    4.3817    0.6092 H   0  0  0  0  0  0  0  0  0  0  0  0
    8.7070    3.4725    0.2677 H   0  0  0  0  0  0  0  0  0  0  0  0
    9.0000    1.0354   -0.2031 H   0  0  0  0  0  0  0  0  0  0  0  0
    7.0148   -0.4693   -0.3305 H   0  0  0  0  0  0  0  0  0  0  0  0
    7.0154   -3.7563   -1.2556 H   0  0  0  0  0  0  0  0  0  0  0  0
    6.4967   -6.1687   -1.7315 H   0  0  0  0  0  0  0  0  0  0  0  0
    2.2545   -9.2940   -1.6954 H   0  0  0  0  0  0  0  0  0  0  0  0
    0.6752   -9.7673   -3.5449 H   0  0  0  0  0  0  0  0  0  0  0  0
    0.6309   -8.2977   -5.5639 H   0  0  0  0  0  0  0  0  0  0  0  0
    2.1808   -6.3466   -5.7109 H   0  0  0  0  0  0  0  0  0  0  0  0
    3.7726   -5.8713   -3.8639 H   0  0  0  0  0  0  0  0  0  0  0  0
    4.8583   -9.4727   -2.7634 H   0  0  0  0  0  0  0  0  0  0  0  0
    6.0180  -11.3917   -1.7273 H   0  0  0  0  0  0  0  0  0  0  0  0
    6.5640  -11.3538    0.7047 H   0  0  0  0  0  0  0  0  0  0  0  0
    6.4992  -10.2684    2.8572 H   0  0  0  0  0  0  0  0  0  0  0  0
    5.8355   -8.3651    4.3151 H   0  0  0  0  0  0  0  0  0  0  0  0
    4.6030   -6.4250    3.3266 H   0  0  0  0  0  0  0  0  0  0  0  0
    4.0878   -6.3541    0.9375 H   0  0  0  0  0  0  0  0  0  0  0  0
    2.3092   -5.3788   -1.0026 H   0  0  0  0  0  0  0  0  0  0  0  0
    1.5504   -3.0610   -0.3849 H   0  0  0  0  0  0  0  0  0  0  0  0
    1.3208    1.9173    1.5238 H   0  0  0  0  0  0  0  0  0  0  0  0
   -1.0740    2.4607    1.9408 H   0  0  0  0  0  0  0  0  0  0  0  0
  1  2  2  0
  1 42  1  0
  1 43  1  0
  2  3  1  0
  2 44  1  0
  3  4  2  0
  3 45  1  0
  4  5  1  0
  4 41  1  0
  5  6  2  0
  5 40  1  0
  6  7  1  0
  7  8  1  0
  7 14  1  0
  8  9  2  0
  8 13  1  0
  9 10  1  0
  9 46  1  0
 10 11  2  0
 10 47  1  0
 11 12  1  0
 11 48  1  0
 12 13  2  0
 12 49  1  0
 13 50  1  0
 14 15  1  0
 14 40  2  0
 15 16  2  0
 16 17  1  0
 16 38  1  0
 17 18  2  0
 17 51  1  0
 18 19  1  0
 18 52  1  0
 19 20  1  0
 19 37  2  0
 20 21  1  0
 20 27  1  0
 21 22  2  0
 21 26  1  0
 22 23  1  0
 22 53  1  0
 23 24  2  0
 23 54  1  0
 24 25  1  0
 24 55  1  0
 25 26  2  0
 25 56  1  0
 26 57  1  0
 27 28  2  0
 27 36  1  0
 28 29  1  0
 28 58  1  0
 29 30  2  0
 29 59  1  0
 30 31  1  0
 30 60  1  0
 31 32  1  0
 31 36  2  0
 32 33  2  0
 32 61  1  0
 33 34  1  0
 33 62  1  0
 34 35  2  0
 34 63  1  0
 35 36  1  0
 35 64  1  0
 37 38  1  0
 37 65  1  0
 38 39  2  0
 39 40  1  0
 39 66  1  0
 41 42  2  0
 41 67  1  0
 42 68  1  0
M  END

