
     RDKit          3D

 79 86  0  0  0  0  0  0  0  0999 V2000
    2.2197    1.9431    1.4349 C   0  0  0  0  0  0  0  0  0  0  0  0
    2.4884    0.9702    2.5870 C   0  0  0  0  0  0  0  0  0  0  0  0
    3.3178   -0.1785    2.1935 N   0  0  0  0  0  0  0  0  0  0  0  0
    2.6576   -1.4099    1.6907 C   0  0  0  0  0  0  0  0  0  0  0  0
    1.1499   -1.4962    1.8759 C   0  0  0  0  0  0  0  0  0  0  0  0
    4.6791   -0.0893    2.1710 C   0  0  0  0  0  0  0  0  0  0  0  0
    5.3590    1.1012    2.6004 C   0  0  0  0  0  0  0  0  0  0  0  0
    6.7365    1.1785    2.5662 C   0  0  0  0  0  0  0  0  0  0  0  0
    7.5066    0.0908    2.1065 C   0  0  0  0  0  0  0  0  0  0  0  0
    9.0032    0.1696    2.0630 C   0  0  0  0  0  0  0  0  0  0  0  0
    9.5695    1.2950    2.4948 N   0  0  0  0  0  0  0  0  0  0  0  0
   10.9094    1.2762    2.4220 C   0  0  0  0  0  0  0  0  0  0  0  0
   11.5922    2.3510    2.8430 O   0  0  0  0  0  0  0  0  0  0  0  0
   10.9401    3.5013    3.2631 C   0  0  0  0  0  0  0  0  0  0  0  0
   10.9929    3.8349    4.6160 C   0  0  0  0  0  0  0  0  0  0  0  0
   10.4082    5.0242    5.0510 C   0  0  0  0  0  0  0  0  0  0  0  0
    9.7691    5.8864    4.1434 C   0  0  0  0  0  0  0  0  0  0  0  0
    9.1343    7.1445    4.5657 C   0  0  0  0  0  0  0  0  0  0  0  0
    8.4796    7.9296    3.7663 N   0  0  0  0  0  0  0  0  0  0  0  0
    7.9887    9.0403    4.4145 C   0  0  0  0  0  0  0  0  0  0  0  0
    7.2414   10.0726    3.8184 C   0  0  0  0  0  0  0  0  0  0  0  0
    6.8096   11.1358    4.6042 C   0  0  0  0  0  0  0  0  0  0  0  0
    7.1112   11.1885    5.9795 C   0  0  0  0  0  0  0  0  0  0  0  0
    7.8511   10.1781    6.5929 C   0  0  0  0  0  0  0  0  0  0  0  0
    8.2858    9.1076    5.8029 C   0  0  0  0  0  0  0  0  0  0  0  0
    9.2217    7.7042    6.2570 S   0  0  0  0  0  0  0  0  0  0  0  0
    9.7400    5.5326    2.7792 C   0  0  0  0  0  0  0  0  0  0  0  0
   10.3242    4.3498    2.3381 C   0  0  0  0  0  0  0  0  0  0  0  0
   11.6505    0.2795    1.9785 N   0  0  0  0  0  0  0  0  0  0  0  0
   10.9759   -0.8045    1.5686 C   0  0  0  0  0  0  0  0  0  0  0  0
   11.6972   -1.7976    1.1280 O   0  0  0  0  0  0  0  0  0  0  0  0
   11.0721   -3.0012    0.6645 C   0  0  0  0  0  0  0  0  0  0  0  0
   10.7960   -3.1476   -0.6965 C   0  0  0  0  0  0  0  0  0  0  0  0
   10.1524   -4.2935   -1.1467 C   0  0  0  0  0  0  0  0  0  0  0  0
    9.7474   -5.3300   -0.2423 C   0  0  0  0  0  0  0  0  0  0  0  0
    9.0420   -6.4971   -0.6487 C   0  0  0  0  0  0  0  0  0  0  0  0
    8.6274   -7.4749    0.1653 N   0  0  0  0  0  0  0  0  0  0  0  0
    7.9742   -8.4571   -0.4956 C   0  0  0  0  0  0  0  0  0  0  0  0
    7.4189   -9.6272    0.0830 C   0  0  0  0  0  0  0  0  0  0  0  0
    6.7670  -10.5612   -0.7196 C   0  0  0  0  0  0  0  0  0  0  0  0
    6.6419  -10.3748   -2.1070 C   0  0  0  0  0  0  0  0  0  0  0  0
    7.1829   -9.2263   -2.7104 C   0  0  0  0  0  0  0  0  0  0  0  0
    7.8349   -8.2884   -1.9153 C   0  0  0  0  0  0  0  0  0  0  0  0
    8.6015   -6.7778   -2.3882 S   0  0  0  0  0  0  0  0  0  0  0  0
   10.0859   -5.1460    1.1417 C   0  0  0  0  0  0  0  0  0  0  0  0
   10.7314   -4.0039    1.5839 C   0  0  0  0  0  0  0  0  0  0  0  0
    9.6298   -0.8932    1.5975 N   0  0  0  0  0  0  0  0  0  0  0  0
    6.8577   -1.0878    1.6792 C   0  0  0  0  0  0  0  0  0  0  0  0
    5.4823   -1.1839    1.7073 C   0  0  0  0  0  0  0  0  0  0  0  0
    1.5799    2.7629    1.7937 H   0  0  0  0  0  0  0  0  0  0  0  0
    1.7016    1.4482    0.6000 H   0  0  0  0  0  0  0  0  0  0  0  0
    3.1527    2.3790    1.0476 H   0  0  0  0  0  0  0  0  0  0  0  0
    1.5452    0.5782    2.9803 H   0  0  0  0  0  0  0  0  0  0  0  0
    2.9755    1.4813    3.4262 H   0  0  0  0  0  0  0  0  0  0  0  0
    3.1276   -2.2620    2.2022 H   0  0  0  0  0  0  0  0  0  0  0  0
    2.9075   -1.5067    0.6211 H   0  0  0  0  0  0  0  0  0  0  0  0
    0.8527   -1.4788    2.9350 H   0  0  0  0  0  0  0  0  0  0  0  0
    0.8233   -2.4620    1.4637 H   0  0  0  0  0  0  0  0  0  0  0  0
    0.6022   -0.7108    1.3356 H   0  0  0  0  0  0  0  0  0  0  0  0
    4.7992    1.9624    2.9566 H   0  0  0  0  0  0  0  0  0  0  0  0
    7.2536    2.0811    2.8931 H   0  0  0  0  0  0  0  0  0  0  0  0
   11.4947    3.1625    5.3140 H   0  0  0  0  0  0  0  0  0  0  0  0
   10.4515    5.2767    6.1133 H   0  0  0  0  0  0  0  0  0  0  0  0
    7.0181   10.0188    2.7511 H   0  0  0  0  0  0  0  0  0  0  0  0
    6.2304   11.9438    4.1508 H   0  0  0  0  0  0  0  0  0  0  0  0
    6.7625   12.0348    6.5763 H   0  0  0  0  0  0  0  0  0  0  0  0
    8.0843   10.2253    7.6586 H   0  0  0  0  0  0  0  0  0  0  0  0
    9.2549    6.2121    2.0768 H   0  0  0  0  0  0  0  0  0  0  0  0
   10.3134    4.0810    1.2802 H   0  0  0  0  0  0  0  0  0  0  0  0
   11.0922   -2.3643   -1.3988 H   0  0  0  0  0  0  0  0  0  0  0  0
    9.9547   -4.4041   -2.2155 H   0  0  0  0  0  0  0  0  0  0  0  0
    7.5200   -9.7751    1.1606 H   0  0  0  0  0  0  0  0  0  0  0  0
    6.3466  -11.4610   -0.2598 H   0  0  0  0  0  0  0  0  0  0  0  0
    6.1299  -11.1212   -2.7192 H   0  0  0  0  0  0  0  0  0  0  0  0
    7.0945   -9.0756   -3.7898 H   0  0  0  0  0  0  0  0  0  0  0  0
    9.8188   -5.9428    1.8370 H   0  0  0  0  0  0  0  0  0  0  0  0
   10.9819   -3.8806    2.6407 H   0  0  0  0  0  0  0  0  0  0  0  0
    7.4712   -1.9173    1.3267 H   0  0  0  0  0  0  0  0  0  0  0  0
    5.0237   -2.1078    1.3657 H   0  0  0  0  0  0  0  0  0  0  0  0
  1  2  1  0
  1 50  1  0
  1 51  1  0
  1 52  1  0
  2  3  1  0
  2 53  1  0
  2 54  1  0
  3  4  1  0
  3  6  1  0
  4  5  1  0
  4 55  1  0
  4 56  1  0
  5 57  1  0
  5 58  1  0
  5 59  1  0
  6  7  2  0
  6 49  1  0
  7  8  1  0
  7 60  1  0
  8  9  2  0
  8 61  1  0
  9 10  1  0
  9 48  1  0
 10 11  2  0
 10 47  1  0
 11 12  1  0
 12 13  1  0
 12 29  2  0
 13 14  1  0
 14 15  2  0
 14 28  1  0
 15 16  1  0
 15 62  1  0
 16 17  2  0
 16 63  1  0
 17 18  1  0
 17 27  1  0
 18 19  2  0
 18 26  1  0
 19 20  1  0
 20 21  2  0
 20 25  1  0
 21 22  1  0
 21 64  1  0
 22 23  2  0
 22 65  1  0
 23 24  1  0
 23 66  1  0
 24 25  2  0
 24 67  1  0
 25 26  1  0
 27 28  2  0
 27 68  1  0
 28 69  1  0
 29 30  1  0
 30 31  1  0
 30 47  2  0
 31 32  1  0
 32 33  2  0
 32 46  1  0
 33 34  1  0
 33 70  1  0
 34 35  2  0
 34 71  1  0
 35 36  1  0
 35 45  1  0
 36 37  2  0
 36 44  1  0
 37 38  1  0
 38 39  2  0
 38 43  1  0
 39 40  1  0
 39 72  1  0
 40 41  2  0
 40 73  1  0
 41 42  1  0
 41 74  1  0
 42 43  2  0
 42 75  1  0
 43 44  1  0
 45 46  2  0
 45 76  1  0
 46 77  1  0
 48 49  2  0
 48 78  1  0
 49 79  1  0
M  END

