
     RDKit          3D

117129  0  0  0  0  0  0  0  0999 V2000
   -1.8660   -6.4761   -3.3606 C   0  0  0  0  0  0  0  0  0  0  0  0
   -1.3674   -5.4047   -2.4196 C   0  0  0  0  0  0  0  0  0  0  0  0
   -1.2360   -4.0711   -2.8715 C   0  0  0  0  0  0  0  0  0  0  0  0
   -0.7971   -3.0401   -2.0433 C   0  0  0  0  0  0  0  0  0  0  0  0
   -0.4856   -3.3513   -0.7159 C   0  0  0  0  0  0  0  0  0  0  0  0
   -0.5801   -4.6834   -0.2396 C   0  0  0  0  0  0  0  0  0  0  0  0
   -1.0280   -5.6998   -1.0967 C   0  0  0  0  0  0  0  0  0  0  0  0
   -0.1169   -4.6727    1.1342 C   0  0  0  0  0  0  0  0  0  0  0  0
    0.0188   -5.6660    2.1154 C   0  0  0  0  0  0  0  0  0  0  0  0
    0.5118   -5.3428    3.3830 C   0  0  0  0  0  0  0  0  0  0  0  0
    0.6701   -6.3946    4.4560 C   0  0  0  0  0  0  0  0  0  0  0  0
    0.8657   -4.0001    3.6503 C   0  0  0  0  0  0  0  0  0  0  0  0
    0.7407   -2.9903    2.6969 C   0  0  0  0  0  0  0  0  0  0  0  0
    0.2458   -3.3354    1.4330 C   0  0  0  0  0  0  0  0  0  0  0  0
   -0.0063   -2.5285    0.3147 N   0  0  0  0  0  0  0  0  0  0  0  0
    0.3515   -1.1600    0.2104 C   0  0  0  0  0  0  0  0  0  0  0  0
    1.6944   -0.8197    0.4001 C   0  0  0  0  0  0  0  0  0  0  0  0
    2.1299    0.5053    0.2972 C   0  0  0  0  0  0  0  0  0  0  0  0
    3.5613    0.8513    0.5037 C   0  0  0  0  0  0  0  0  0  0  0  0
    3.9334    2.1194    0.3016 N   0  0  0  0  0  0  0  0  0  0  0  0
    5.2302    2.3943    0.5033 C   0  0  0  0  0  0  0  0  0  0  0  0
    5.6924    3.7891    0.2898 C   0  0  0  0  0  0  0  0  0  0  0  0
    7.0348    4.1380    0.5223 C   0  0  0  0  0  0  0  0  0  0  0  0
    7.4667    5.4490    0.3215 C   0  0  0  0  0  0  0  0  0  0  0  0
    6.5656    6.4265   -0.1148 C   0  0  0  0  0  0  0  0  0  0  0  0
    5.2287    6.0872   -0.3496 C   0  0  0  0  0  0  0  0  0  0  0  0
    4.7930    4.7775   -0.1485 C   0  0  0  0  0  0  0  0  0  0  0  0
    6.1285    1.4777    0.8857 N   0  0  0  0  0  0  0  0  0  0  0  0
    5.6747    0.2304    1.0637 C   0  0  0  0  0  0  0  0  0  0  0  0
    6.6387   -0.8164    1.4875 C   0  0  0  0  0  0  0  0  0  0  0  0
    6.2058   -2.1360    1.7092 C   0  0  0  0  0  0  0  0  0  0  0  0
    7.1133   -3.1174    2.1082 C   0  0  0  0  0  0  0  0  0  0  0  0
    8.4624   -2.7945    2.2906 C   0  0  0  0  0  0  0  0  0  0  0  0
    8.9010   -1.4838    2.0724 C   0  0  0  0  0  0  0  0  0  0  0  0
    7.9963   -0.4999    1.6737 C   0  0  0  0  0  0  0  0  0  0  0  0
    4.3942   -0.1240    0.8815 N   0  0  0  0  0  0  0  0  0  0  0  0
    1.1933    1.5003   -0.0011 C   0  0  0  0  0  0  0  0  0  0  0  0
   -0.1573    1.1940   -0.1924 C   0  0  0  0  0  0  0  0  0  0  0  0
   -1.0448    2.2630   -0.4760 N   0  0  0  0  0  0  0  0  0  0  0  0
   -0.8939    3.1630   -1.5405 C   0  0  0  0  0  0  0  0  0  0  0  0
    0.0242    3.1586   -2.5981 C   0  0  0  0  0  0  0  0  0  0  0  0
   -0.0669    4.1738   -3.5497 C   0  0  0  0  0  0  0  0  0  0  0  0
   -1.0461    5.1915   -3.4807 C   0  0  0  0  0  0  0  0  0  0  0  0
   -1.0960    6.2665   -4.5411 C   0  0  0  0  0  0  0  0  0  0  0  0
   -1.9538    5.1770   -2.4174 C   0  0  0  0  0  0  0  0  0  0  0  0
   -1.8857    4.1711   -1.4423 C   0  0  0  0  0  0  0  0  0  0  0  0
   -2.6516    3.8888   -0.2440 C   0  0  0  0  0  0  0  0  0  0  0  0
   -3.7189    4.5405    0.3917 C   0  0  0  0  0  0  0  0  0  0  0  0
   -4.2267    4.0472    1.5964 C   0  0  0  0  0  0  0  0  0  0  0  0
   -5.3846    4.7205    2.2950 C   0  0  0  0  0  0  0  0  0  0  0  0
   -3.6335    2.8937    2.1594 C   0  0  0  0  0  0  0  0  0  0  0  0
   -2.5750    2.2230    1.5499 C   0  0  0  0  0  0  0  0  0  0  0  0
   -2.0975    2.7179    0.3322 C   0  0  0  0  0  0  0  0  0  0  0  0
   -0.6086   -0.1524   -0.0898 C   0  0  0  0  0  0  0  0  0  0  0  0
   -1.9693   -0.4784   -0.2802 N   0  0  0  0  0  0  0  0  0  0  0  0
   -2.7191   -0.2484   -1.4474 C   0  0  0  0  0  0  0  0  0  0  0  0
   -2.3216    0.2741   -2.6821 C   0  0  0  0  0  0  0  0  0  0  0  0
   -3.2739    0.3573   -3.6968 C   0  0  0  0  0  0  0  0  0  0  0  0
   -4.6091   -0.0710   -3.5198 C   0  0  0  0  0  0  0  0  0  0  0  0
   -5.6016    0.0578   -4.6513 C   0  0  0  0  0  0  0  0  0  0  0  0
   -4.9813   -0.6073   -2.2838 C   0  0  0  0  0  0  0  0  0  0  0  0
   -4.0446   -0.7031   -1.2447 C   0  0  0  0  0  0  0  0  0  0  0  0
   -4.1090   -1.2274    0.1055 C   0  0  0  0  0  0  0  0  0  0  0  0
   -5.1434   -1.7831    0.8720 C   0  0  0  0  0  0  0  0  0  0  0  0
   -4.9059   -2.1836    2.1899 C   0  0  0  0  0  0  0  0  0  0  0  0
   -5.9976   -2.7994    3.0331 C   0  0  0  0  0  0  0  0  0  0  0  0
   -3.6113   -2.0050    2.7282 C   0  0  0  0  0  0  0  0  0  0  0  0
   -2.5643   -1.4551    1.9900 C   0  0  0  0  0  0  0  0  0  0  0  0
   -2.8178   -1.0783    0.6675 C   0  0  0  0  0  0  0  0  0  0  0  0
   -1.8308   -7.4719   -2.8941 H   0  0  0  0  0  0  0  0  0  0  0  0
   -1.2641   -6.5162   -4.2840 H   0  0  0  0  0  0  0  0  0  0  0  0
   -2.9097   -6.2889   -3.6670 H   0  0  0  0  0  0  0  0  0  0  0  0
   -1.4891   -3.8365   -3.9095 H   0  0  0  0  0  0  0  0  0  0  0  0
   -0.7028   -2.0264   -2.4311 H   0  0  0  0  0  0  0  0  0  0  0  0
   -1.1041   -6.7275   -0.7306 H   0  0  0  0  0  0  0  0  0  0  0  0
   -0.2634   -6.6979    1.8883 H   0  0  0  0  0  0  0  0  0  0  0  0
    0.3449   -7.3842    4.1018 H   0  0  0  0  0  0  0  0  0  0  0  0
    0.0770   -6.1495    5.3534 H   0  0  0  0  0  0  0  0  0  0  0  0
    1.7203   -6.4852    4.7820 H   0  0  0  0  0  0  0  0  0  0  0  0
    1.2526   -3.7421    4.6406 H   0  0  0  0  0  0  0  0  0  0  0  0
    1.0256   -1.9644    2.9376 H   0  0  0  0  0  0  0  0  0  0  0  0
    2.4194   -1.6046    0.6110 H   0  0  0  0  0  0  0  0  0  0  0  0
    7.7267    3.3670    0.8622 H   0  0  0  0  0  0  0  0  0  0  0  0
    8.5116    5.7111    0.5060 H   0  0  0  0  0  0  0  0  0  0  0  0
    6.9058    7.4535   -0.2720 H   0  0  0  0  0  0  0  0  0  0  0  0
    4.5221    6.8478   -0.6910 H   0  0  0  0  0  0  0  0  0  0  0  0
    3.7538    4.5017   -0.3294 H   0  0  0  0  0  0  0  0  0  0  0  0
    5.1520   -2.3761    1.5663 H   0  0  0  0  0  0  0  0  0  0  0  0
    6.7668   -4.1399    2.2779 H   0  0  0  0  0  0  0  0  0  0  0  0
    9.1725   -3.5648    2.6030 H   0  0  0  0  0  0  0  0  0  0  0  0
    9.9541   -1.2283    2.2138 H   0  0  0  0  0  0  0  0  0  0  0  0
    8.3255    0.5249    1.5005 H   0  0  0  0  0  0  0  0  0  0  0  0
    1.5191    2.5377   -0.0622 H   0  0  0  0  0  0  0  0  0  0  0  0
    0.7943    2.3895   -2.6816 H   0  0  0  0  0  0  0  0  0  0  0  0
    0.6469    4.1816   -4.3788 H   0  0  0  0  0  0  0  0  0  0  0  0
   -1.2477    5.8368   -5.5460 H   0  0  0  0  0  0  0  0  0  0  0  0
   -1.9146    6.9776   -4.3557 H   0  0  0  0  0  0  0  0  0  0  0  0
   -0.1554    6.8421   -4.5786 H   0  0  0  0  0  0  0  0  0  0  0  0
   -2.7196    5.9546   -2.3457 H   0  0  0  0  0  0  0  0  0  0  0  0
   -4.1493    5.4422   -0.0529 H   0  0  0  0  0  0  0  0  0  0  0  0
   -6.2749    4.0686    2.3181 H   0  0  0  0  0  0  0  0  0  0  0  0
   -5.1393    4.9641    3.3423 H   0  0  0  0  0  0  0  0  0  0  0  0
   -5.6711    5.6558    1.7913 H   0  0  0  0  0  0  0  0  0  0  0  0
   -4.0178    2.5097    3.1089 H   0  0  0  0  0  0  0  0  0  0  0  0
   -2.1405    1.3414    2.0197 H   0  0  0  0  0  0  0  0  0  0  0  0
   -1.3008    0.6119   -2.8601 H   0  0  0  0  0  0  0  0  0  0  0  0
   -2.9738    0.7720   -4.6635 H   0  0  0  0  0  0  0  0  0  0  0  0
   -5.7859    1.1156   -4.9066 H   0  0  0  0  0  0  0  0  0  0  0  0
   -6.5703   -0.3948   -4.3923 H   0  0  0  0  0  0  0  0  0  0  0  0
   -5.2359   -0.4335   -5.5686 H   0  0  0  0  0  0  0  0  0  0  0  0
   -6.0050   -0.9591   -2.1283 H   0  0  0  0  0  0  0  0  0  0  0  0
   -6.1406   -1.8989    0.4384 H   0  0  0  0  0  0  0  0  0  0  0  0
   -6.1273   -2.2583    3.9854 H   0  0  0  0  0  0  0  0  0  0  0  0
   -6.9651   -2.7924    2.5093 H   0  0  0  0  0  0  0  0  0  0  0  0
   -5.7654   -3.8474    3.2896 H   0  0  0  0  0  0  0  0  0  0  0  0
   -3.4193   -2.3108    3.7607 H   0  0  0  0  0  0  0  0  0  0  0  0
   -1.5812   -1.3310    2.4435 H   0  0  0  0  0  0  0  0  0  0  0  0
  1  2  1  0
  1 70  1  0
  1 71  1  0
  1 72  1  0
  2  3  2  0
  2  7  1  0
  3  4  1  0
  3 73  1  0
  4  5  2  0
  4 74  1  0
  5  6  1  0
  5 15  1  0
  6  7  2  0
  6  8  1  0
  7 75  1  0
  8  9  2  0
  8 14  1  0
  9 10  1  0
  9 76  1  0
 10 11  1  0
 10 12  2  0
 11 77  1  0
 11 78  1  0
 11 79  1  0
 12 13  1  0
 12 80  1  0
 13 14  2  0
 13 81  1  0
 14 15  1  0
 15 16  1  0
 16 17  2  0
 16 54  1  0
 17 18  1  0
 17 82  1  0
 18 19  1  0
 18 37  2  0
 19 20  2  0
 19 36  1  0
 20 21  1  0
 21 22  1  0
 21 28  2  0
 22 23  2  0
 22 27  1  0
 23 24  1  0
 23 83  1  0
 24 25  2  0
 24 84  1  0
 25 26  1  0
 25 85  1  0
 26 27  2  0
 26 86  1  0
 27 87  1  0
 28 29  1  0
 29 30  1  0
 29 36  2  0
 30 31  2  0
 30 35  1  0
 31 32  1  0
 31 88  1  0
 32 33  2  0
 32 89  1  0
 33 34  1  0
 33 90  1  0
 34 35  2  0
 34 91  1  0
 35 92  1  0
 37 38  1  0
 37 93  1  0
 38 39  1  0
 38 54  2  0
 39 40  1  0
 39 53  1  0
 40 41  2  0
 40 46  1  0
 41 42  1  0
 41 94  1  0
 42 43  2  0
 42 95  1  0
 43 44  1  0
 43 45  1  0
 44 96  1  0
 44 97  1  0
 44 98  1  0
 45 46  2  0
 45 99  1  0
 46 47  1  0
 47 48  1  0
 47 53  2  0
 48 49  2  0
 48100  1  0
 49 50  1  0
 49 51  1  0
 50101  1  0
 50102  1  0
 50103  1  0
 51 52  2  0
 51104  1  0
 52 53  1  0
 52105  1  0
 54 55  1  0
 55 56  1  0
 55 69  1  0
 56 57  2  0
 56 62  1  0
 57 58  1  0
 57106  1  0
 58 59  2  0
 58107  1  0
 59 60  1  0
 59 61  1  0
 60108  1  0
 60109  1  0
 60110  1  0
 61 62  2  0
 61111  1  0
 62 63  1  0
 63 64  1  0
 63 69  2  0
 64 65  2  0
 64112  1  0
 65 66  1  0
 65 67  1  0
 66113  1  0
 66114  1  0
 66115  1  0
 67 68  2  0
 67116  1  0
 68 69  1  0
 68117  1  0
M  END

