
     RDKit          3D

104115  0  0  0  0  0  0  0  0999 V2000
   -0.0697    3.1353   -3.5361 O   0  0  0  0  0  0  0  0  0  0  0  0
   -0.0547    2.3136   -2.5970 C   0  0  0  0  0  0  0  0  0  0  0  0
   -1.3404    1.8250   -2.0227 C   0  0  0  0  0  0  0  0  0  0  0  0
   -1.4983    1.2916   -0.7196 C   0  0  0  0  0  0  0  0  0  0  0  0
   -2.7507    0.9295   -0.2309 C   0  0  0  0  0  0  0  0  0  0  0  0
   -3.8996    1.1003   -1.0270 C   0  0  0  0  0  0  0  0  0  0  0  0
   -5.1883    0.7234   -0.5292 N   0  0  0  0  0  0  0  0  0  0  0  0
   -5.7870    1.2032    0.6291 C   0  0  0  0  0  0  0  0  0  0  0  0
   -5.3279    2.1734    1.5337 C   0  0  0  0  0  0  0  0  0  0  0  0
   -6.1362    2.4850    2.6222 C   0  0  0  0  0  0  0  0  0  0  0  0
   -7.3969    1.8688    2.8325 C   0  0  0  0  0  0  0  0  0  0  0  0
   -8.2256    2.2292    4.0078 C   0  0  0  0  0  0  0  0  0  0  0  0
   -9.6316    2.2845    3.9154 C   0  0  0  0  0  0  0  0  0  0  0  0
  -10.4116    2.6233    5.0214 C   0  0  0  0  0  0  0  0  0  0  0  0
   -9.8061    2.9131    6.2487 C   0  0  0  0  0  0  0  0  0  0  0  0
   -8.4125    2.8621    6.3581 C   0  0  0  0  0  0  0  0  0  0  0  0
   -7.6318    2.5259    5.2517 C   0  0  0  0  0  0  0  0  0  0  0  0
   -7.8492    0.9133    1.8982 C   0  0  0  0  0  0  0  0  0  0  0  0
   -7.0551    0.5805    0.8029 C   0  0  0  0  0  0  0  0  0  0  0  0
   -7.2250   -0.3207   -0.3237 C   0  0  0  0  0  0  0  0  0  0  0  0
   -8.2303   -1.2068   -0.7047 C   0  0  0  0  0  0  0  0  0  0  0  0
   -8.0751   -1.9914   -1.8671 C   0  0  0  0  0  0  0  0  0  0  0  0
   -9.1340   -2.9412   -2.2853 C   0  0  0  0  0  0  0  0  0  0  0  0
  -10.4976   -2.6365   -2.0959 C   0  0  0  0  0  0  0  0  0  0  0  0
  -11.4950   -3.5296   -2.4888 C   0  0  0  0  0  0  0  0  0  0  0  0
  -11.1543   -4.7513   -3.0787 C   0  0  0  0  0  0  0  0  0  0  0  0
   -9.8061   -5.0702   -3.2728 C   0  0  0  0  0  0  0  0  0  0  0  0
   -8.8085   -4.1765   -2.8821 C   0  0  0  0  0  0  0  0  0  0  0  0
   -6.8821   -1.8608   -2.6237 C   0  0  0  0  0  0  0  0  0  0  0  0
   -5.8656   -0.9812   -2.2654 C   0  0  0  0  0  0  0  0  0  0  0  0
   -6.0466   -0.2005   -1.1130 C   0  0  0  0  0  0  0  0  0  0  0  0
   -3.7665    1.6542   -2.3153 C   0  0  0  0  0  0  0  0  0  0  0  0
   -2.5141    2.0137   -2.7960 C   0  0  0  0  0  0  0  0  0  0  0  0
    1.2476    1.8198   -2.0671 C   0  0  0  0  0  0  0  0  0  0  0  0
    1.4329    0.6009   -1.3681 C   0  0  0  0  0  0  0  0  0  0  0  0
    2.7011    0.1668   -0.9907 C   0  0  0  0  0  0  0  0  0  0  0  0
    3.8368    0.9422   -1.2934 C   0  0  0  0  0  0  0  0  0  0  0  0
    5.1416    0.4992   -0.9045 N   0  0  0  0  0  0  0  0  0  0  0  0
    5.5503    0.2043    0.3908 C   0  0  0  0  0  0  0  0  0  0  0  0
    4.8357    0.2968    1.5954 C   0  0  0  0  0  0  0  0  0  0  0  0
    5.4917   -0.0484    2.7725 C   0  0  0  0  0  0  0  0  0  0  0  0
    6.8453   -0.4734    2.7911 C   0  0  0  0  0  0  0  0  0  0  0  0
    7.5056   -0.8319    4.0696 C   0  0  0  0  0  0  0  0  0  0  0  0
    6.7932   -1.4824    5.0977 C   0  0  0  0  0  0  0  0  0  0  0  0
    7.4147   -1.8190    6.3008 C   0  0  0  0  0  0  0  0  0  0  0  0
    8.7638   -1.5129    6.5076 C   0  0  0  0  0  0  0  0  0  0  0  0
    9.4855   -0.8672    5.4981 C   0  0  0  0  0  0  0  0  0  0  0  0
    8.8648   -0.5315    4.2945 C   0  0  0  0  0  0  0  0  0  0  0  0
    7.5512   -0.5391    1.5718 C   0  0  0  0  0  0  0  0  0  0  0  0
    6.9142   -0.2025    0.3791 C   0  0  0  0  0  0  0  0  0  0  0  0
    7.3446   -0.1480   -1.0065 C   0  0  0  0  0  0  0  0  0  0  0  0
    8.5451   -0.4352   -1.6530 C   0  0  0  0  0  0  0  0  0  0  0  0
    8.6431   -0.2942   -3.0530 C   0  0  0  0  0  0  0  0  0  0  0  0
    9.9149   -0.5884   -3.7562 C   0  0  0  0  0  0  0  0  0  0  0  0
   10.7546   -1.6378   -3.3297 C   0  0  0  0  0  0  0  0  0  0  0  0
   11.9517   -1.9143   -3.9908 C   0  0  0  0  0  0  0  0  0  0  0  0
   12.3409   -1.1478   -5.0943 C   0  0  0  0  0  0  0  0  0  0  0  0
   11.5197   -0.1028   -5.5306 C   0  0  0  0  0  0  0  0  0  0  0  0
   10.3216    0.1730   -4.8709 C   0  0  0  0  0  0  0  0  0  0  0  0
    7.4982    0.1279   -3.7771 C   0  0  0  0  0  0  0  0  0  0  0  0
    6.2878    0.4159   -3.1551 C   0  0  0  0  0  0  0  0  0  0  0  0
    6.2185    0.2902   -1.7586 C   0  0  0  0  0  0  0  0  0  0  0  0
    3.6736    2.1512   -1.9979 C   0  0  0  0  0  0  0  0  0  0  0  0
    2.4080    2.5686   -2.3894 C   0  0  0  0  0  0  0  0  0  0  0  0
   -0.6287    1.1720   -0.0723 H   0  0  0  0  0  0  0  0  0  0  0  0
   -2.8442    0.5019    0.7702 H   0  0  0  0  0  0  0  0  0  0  0  0
   -4.3743    2.6801    1.3844 H   0  0  0  0  0  0  0  0  0  0  0  0
   -5.7985    3.2537    3.3200 H   0  0  0  0  0  0  0  0  0  0  0  0
  -10.1170    2.0861    2.9569 H   0  0  0  0  0  0  0  0  0  0  0  0
  -11.4991    2.6696    4.9220 H   0  0  0  0  0  0  0  0  0  0  0  0
  -10.4172    3.1778    7.1151 H   0  0  0  0  0  0  0  0  0  0  0  0
   -7.9294    3.0788    7.3143 H   0  0  0  0  0  0  0  0  0  0  0  0
   -6.5463    2.4667    5.3587 H   0  0  0  0  0  0  0  0  0  0  0  0
   -8.8122    0.4190    2.0440 H   0  0  0  0  0  0  0  0  0  0  0  0
   -9.1232   -1.3185   -0.0857 H   0  0  0  0  0  0  0  0  0  0  0  0
  -10.7796   -1.6749   -1.6607 H   0  0  0  0  0  0  0  0  0  0  0  0
  -12.5454   -3.2661   -2.3411 H   0  0  0  0  0  0  0  0  0  0  0  0
  -11.9353   -5.4511   -3.3861 H   0  0  0  0  0  0  0  0  0  0  0  0
   -9.5284   -6.0257   -3.7249 H   0  0  0  0  0  0  0  0  0  0  0  0
   -7.7598   -4.4506   -3.0173 H   0  0  0  0  0  0  0  0  0  0  0  0
   -6.7626   -2.4532   -3.5328 H   0  0  0  0  0  0  0  0  0  0  0  0
   -4.9606   -0.9009   -2.8676 H   0  0  0  0  0  0  0  0  0  0  0  0
   -4.6577    1.8220   -2.9252 H   0  0  0  0  0  0  0  0  0  0  0  0
   -2.4068    2.4721   -3.7804 H   0  0  0  0  0  0  0  0  0  0  0  0
    0.5755   -0.0369   -1.1510 H   0  0  0  0  0  0  0  0  0  0  0  0
    2.8229   -0.7975   -0.4915 H   0  0  0  0  0  0  0  0  0  0  0  0
    3.8016    0.6412    1.6144 H   0  0  0  0  0  0  0  0  0  0  0  0
    4.9518    0.0410    3.7172 H   0  0  0  0  0  0  0  0  0  0  0  0
    5.7458   -1.7503    4.9414 H   0  0  0  0  0  0  0  0  0  0  0  0
    6.8433   -2.3310    7.0793 H   0  0  0  0  0  0  0  0  0  0  0  0
    9.2501   -1.7755    7.4504 H   0  0  0  0  0  0  0  0  0  0  0  0
   10.5378   -0.6146    5.6523 H   0  0  0  0  0  0  0  0  0  0  0  0
    9.4341   -0.0032    3.5262 H   0  0  0  0  0  0  0  0  0  0  0  0
    8.5911   -0.8727    1.5593 H   0  0  0  0  0  0  0  0  0  0  0  0
    9.4154   -0.7501   -1.0729 H   0  0  0  0  0  0  0  0  0  0  0  0
   10.4512   -2.2619   -2.4858 H   0  0  0  0  0  0  0  0  0  0  0  0
   12.5807   -2.7396   -3.6473 H   0  0  0  0  0  0  0  0  0  0  0  0
   13.2787   -1.3641   -5.6119 H   0  0  0  0  0  0  0  0  0  0  0  0
   11.8177    0.5078   -6.3869 H   0  0  0  0  0  0  0  0  0  0  0  0
    9.7028    1.0078   -5.2081 H   0  0  0  0  0  0  0  0  0  0  0  0
    7.5567    0.2022   -4.8648 H   0  0  0  0  0  0  0  0  0  0  0  0
    5.4193    0.7169   -3.7410 H   0  0  0  0  0  0  0  0  0  0  0  0
    4.5476    2.7684   -2.2193 H   0  0  0  0  0  0  0  0  0  0  0  0
    2.2771    3.4910   -2.9574 H   0  0  0  0  0  0  0  0  0  0  0  0
  1  2  2  0
  2  3  1  0
  2 34  1  0
  3  4  2  0
  3 33  1  0
  4  5  1  0
  4 65  1  0
  5  6  2  0
  5 66  1  0
  6  7  1  0
  6 32  1  0
  7  8  1  0
  7 31  1  0
  8  9  2  0
  8 19  1  0
  9 10  1  0
  9 67  1  0
 10 11  2  0
 10 68  1  0
 11 12  1  0
 11 18  1  0
 12 13  2  0
 12 17  1  0
 13 14  1  0
 13 69  1  0
 14 15  2  0
 14 70  1  0
 15 16  1  0
 15 71  1  0
 16 17  2  0
 16 72  1  0
 17 73  1  0
 18 19  2  0
 18 74  1  0
 19 20  1  0
 20 21  1  0
 20 31  2  0
 21 22  2  0
 21 75  1  0
 22 23  1  0
 22 29  1  0
 23 24  2  0
 23 28  1  0
 24 25  1  0
 24 76  1  0
 25 26  2  0
 25 77  1  0
 26 27  1  0
 26 78  1  0
 27 28  2  0
 27 79  1  0
 28 80  1  0
 29 30  2  0
 29 81  1  0
 30 31  1  0
 30 82  1  0
 32 33  2  0
 32 83  1  0
 33 84  1  0
 34 35  2  0
 34 64  1  0
 35 36  1  0
 35 85  1  0
 36 37  2  0
 36 86  1  0
 37 38  1  0
 37 63  1  0
 38 39  1  0
 38 62  1  0
 39 40  2  0
 39 50  1  0
 40 41  1  0
 40 87  1  0
 41 42  2  0
 41 88  1  0
 42 43  1  0
 42 49  1  0
 43 44  2  0
 43 48  1  0
 44 45  1  0
 44 89  1  0
 45 46  2  0
 45 90  1  0
 46 47  1  0
 46 91  1  0
 47 48  2  0
 47 92  1  0
 48 93  1  0
 49 50  2  0
 49 94  1  0
 50 51  1  0
 51 52  1  0
 51 62  2  0
 52 53  2  0
 52 95  1  0
 53 54  1  0
 53 60  1  0
 54 55  2  0
 54 59  1  0
 55 56  1  0
 55 96  1  0
 56 57  2  0
 56 97  1  0
 57 58  1  0
 57 98  1  0
 58 59  2  0
 58 99  1  0
 59100  1  0
 60 61  2  0
 60101  1  0
 61 62  1  0
 61102  1  0
 63 64  2  0
 63103  1  0
 64104  1  0
M  END

