
     RDKit          3D

 66 70  0  0  0  0  0  0  0  0999 V2000
    6.2719    4.2926    2.8703 C   0  0  0  0  0  0  0  0  0  0  0  0
    6.4645    2.8640    2.4295 C   0  0  0  0  0  0  0  0  0  0  0  0
    5.5855    2.2753    1.5028 C   0  0  0  0  0  0  0  0  0  0  0  0
    5.7782    0.9707    1.0511 C   0  0  0  0  0  0  0  0  0  0  0  0
    6.8707    0.2424    1.5315 C   0  0  0  0  0  0  0  0  0  0  0  0
    7.1012   -1.4412    0.9781 S   0  0  1  0  0  0  0  0  0  0  0  0
    7.9535   -2.1096    1.9695 O   0  0  0  0  0  0  0  0  0  0  0  0
    5.7889   -1.9779    0.6031 O   0  0  0  0  0  0  0  0  0  0  0  0
    7.9443   -1.3220   -0.5238 N   0  0  0  0  0  0  0  0  0  0  0  0
    9.3407   -1.5873   -0.5759 C   0  0  0  0  0  0  0  0  0  0  0  0
   10.3020   -0.5794   -0.5446 C   0  0  0  0  0  0  0  0  0  0  0  0
   10.2270    0.8704   -0.5532 C   0  0  0  0  0  0  0  0  0  0  0  0
    9.1446    1.6446   -0.8080 C   0  0  0  0  0  0  0  0  0  0  0  0
    9.1210    3.1095   -0.8572 C   0  0  0  0  0  0  0  0  0  0  0  0
   10.2106    3.9236   -0.4764 C   0  0  0  0  0  0  0  0  0  0  0  0
   10.1332    5.3127   -0.5555 C   0  0  0  0  0  0  0  0  0  0  0  0
    8.9652    5.9349   -1.0146 C   0  0  0  0  0  0  0  0  0  0  0  0
    7.8735    5.1471   -1.3916 C   0  0  0  0  0  0  0  0  0  0  0  0
    7.9512    3.7557   -1.3109 C   0  0  0  0  0  0  0  0  0  0  0  0
   11.8929   -1.2915   -0.6048 S   0  0  0  0  0  0  0  0  0  0  0  0
   11.2772   -2.9155   -0.7593 C   0  0  0  0  0  0  0  0  0  0  0  0
   12.2255   -4.0341   -0.8590 C   0  0  0  0  0  0  0  0  0  0  0  0
   11.9739   -5.2799   -0.2490 C   0  0  0  0  0  0  0  0  0  0  0  0
   12.8829   -6.3285   -0.3210 C   0  0  0  0  0  0  0  0  0  0  0  0
   14.1132   -6.1934   -1.0143 C   0  0  0  0  0  0  0  0  0  0  0  0
   15.0171   -7.2351   -1.0928 N   0  0  0  0  0  0  0  0  0  0  0  0
   16.2784   -7.0510   -1.7797 C   0  0  0  0  0  0  0  0  0  0  0  0
   14.7249   -8.4997   -0.4501 C   0  0  0  0  0  0  0  0  0  0  0  0
   14.3712   -4.9385   -1.6218 C   0  0  0  0  0  0  0  0  0  0  0  0
   13.4506   -3.8993   -1.5421 C   0  0  0  0  0  0  0  0  0  0  0  0
    9.8870   -2.9137   -0.7220 C   0  0  0  0  0  0  0  0  0  0  0  0
    9.0529   -4.1213   -0.9446 C   0  0  0  0  0  0  0  0  0  0  0  0
    9.1287   -4.9176   -2.1421 C   0  0  0  0  0  0  0  0  0  0  0  0
    8.2608   -5.9766   -2.1384 C   0  0  0  0  0  0  0  0  0  0  0  0
    7.3321   -6.0311   -0.6787 S   0  0  0  0  0  0  0  0  0  0  0  0
    8.1120   -4.6181   -0.0650 C   0  0  0  0  0  0  0  0  0  0  0  0
    7.7479    0.7885    2.4699 C   0  0  0  0  0  0  0  0  0  0  0  0
    7.5376    2.0965    2.9098 C   0  0  0  0  0  0  0  0  0  0  0  0
    5.2049    4.5516    2.9504 H   0  0  0  0  0  0  0  0  0  0  0  0
    6.7228    4.9840    2.1372 H   0  0  0  0  0  0  0  0  0  0  0  0
    6.7485    4.4860    3.8427 H   0  0  0  0  0  0  0  0  0  0  0  0
    4.7306    2.8484    1.1333 H   0  0  0  0  0  0  0  0  0  0  0  0
    5.0828    0.5080    0.3486 H   0  0  0  0  0  0  0  0  0  0  0  0
    7.3921   -1.8910   -1.1687 H   0  0  0  0  0  0  0  0  0  0  0  0
   11.1892    1.3651   -0.3813 H   0  0  0  0  0  0  0  0  0  0  0  0
    8.1945    1.1494   -1.0192 H   0  0  0  0  0  0  0  0  0  0  0  0
   11.1289    3.4650   -0.1032 H   0  0  0  0  0  0  0  0  0  0  0  0
   10.9914    5.9189   -0.2532 H   0  0  0  0  0  0  0  0  0  0  0  0
    8.9086    7.0246   -1.0761 H   0  0  0  0  0  0  0  0  0  0  0  0
    6.9559    5.6189   -1.7532 H   0  0  0  0  0  0  0  0  0  0  0  0
    7.0933    3.1467   -1.6079 H   0  0  0  0  0  0  0  0  0  0  0  0
   11.0501   -5.4257    0.3124 H   0  0  0  0  0  0  0  0  0  0  0  0
   12.6319   -7.2629    0.1795 H   0  0  0  0  0  0  0  0  0  0  0  0
   16.1394   -6.7981   -2.8473 H   0  0  0  0  0  0  0  0  0  0  0  0
   16.8594   -7.9809   -1.7315 H   0  0  0  0  0  0  0  0  0  0  0  0
   16.8905   -6.2484   -1.3266 H   0  0  0  0  0  0  0  0  0  0  0  0
   13.7942   -8.9558   -0.8348 H   0  0  0  0  0  0  0  0  0  0  0  0
   14.6163   -8.4005    0.6465 H   0  0  0  0  0  0  0  0  0  0  0  0
   15.5442   -9.2043   -0.6420 H   0  0  0  0  0  0  0  0  0  0  0  0
   15.2962   -4.7704   -2.1720 H   0  0  0  0  0  0  0  0  0  0  0  0
   13.6857   -2.9552   -2.0410 H   0  0  0  0  0  0  0  0  0  0  0  0
    9.8078   -4.6938   -2.9657 H   0  0  0  0  0  0  0  0  0  0  0  0
    8.1099   -6.7246   -2.9155 H   0  0  0  0  0  0  0  0  0  0  0  0
    7.8595   -4.2280    0.9190 H   0  0  0  0  0  0  0  0  0  0  0  0
    8.5743    0.1886    2.8536 H   0  0  0  0  0  0  0  0  0  0  0  0
    8.2221    2.5290    3.6444 H   0  0  0  0  0  0  0  0  0  0  0  0
  1  2  1  0
  1 39  1  0
  1 40  1  0
  1 41  1  0
  2  3  2  0
  2 38  1  0
  3  4  1  0
  3 42  1  0
  4  5  2  0
  4 43  1  0
  5  6  1  0
  5 37  1  0
  6  7  2  0
  6  8  2  0
  6  9  1  6
  9 10  1  0
  9 44  1  0
 10 11  2  0
 10 31  1  0
 11 12  1  0
 11 20  1  0
 12 13  2  0
 12 45  1  0
 13 14  1  0
 13 46  1  0
 14 15  2  0
 14 19  1  0
 15 16  1  0
 15 47  1  0
 16 17  2  0
 16 48  1  0
 17 18  1  0
 17 49  1  0
 18 19  2  0
 18 50  1  0
 19 51  1  0
 20 21  1  0
 21 22  1  0
 21 31  2  0
 22 23  2  0
 22 30  1  0
 23 24  1  0
 23 52  1  0
 24 25  2  0
 24 53  1  0
 25 26  1  0
 25 29  1  0
 26 27  1  0
 26 28  1  0
 27 54  1  0
 27 55  1  0
 27 56  1  0
 28 57  1  0
 28 58  1  0
 28 59  1  0
 29 30  2  0
 29 60  1  0
 30 61  1  0
 31 32  1  0
 32 33  1  0
 32 36  2  0
 33 34  2  0
 33 62  1  0
 34 35  1  0
 34 63  1  0
 35 36  1  0
 36 64  1  0
 37 38  2  0
 37 65  1  0
 38 66  1  0
M  END

