
     RDKit          3D

 73 80  0  0  0  0  0  0  0  0999 V2000
    1.4745   -0.4962    2.0794 C   0  0  0  0  0  0  0  0  0  0  0  0
    1.6825   -0.1248    0.6002 C   0  0  1  0  0  0  0  0  0  0  0  0
    0.2968    0.1403   -0.0319 C   0  0  0  0  0  0  0  0  0  0  0  0
    2.5271    1.1692    0.5429 C   0  0  0  0  0  0  0  0  0  0  0  0
    2.3989   -1.2412   -0.1850 C   0  0  0  0  0  0  0  0  0  0  0  0
    2.8101   -2.4395    0.4008 C   0  0  0  0  0  0  0  0  0  0  0  0
    3.3879   -3.4796   -0.3781 C   0  0  0  0  0  0  0  0  0  0  0  0
    3.5496   -4.7553    0.2522 C   0  0  0  0  0  0  0  0  0  0  0  0
    3.8586   -5.8665   -0.4696 C   0  0  0  0  0  0  0  0  0  0  0  0
    4.1061   -5.7683   -1.8725 C   0  0  0  0  0  0  0  0  0  0  0  0
    4.3183   -6.9731   -2.6000 C   0  0  0  0  0  0  0  0  0  0  0  0
    4.6002   -6.9986   -3.9534 C   0  0  0  0  0  0  0  0  0  0  0  0
    4.7871   -8.2843   -4.7760 C   0  0  1  0  0  0  0  0  0  0  0  0
    3.7778   -8.2875   -5.9472 C   0  0  0  0  0  0  0  0  0  0  0  0
    6.2267   -8.3349   -5.3386 C   0  0  0  0  0  0  0  0  0  0  0  0
    4.5521   -9.5472   -3.9287 C   0  0  0  0  0  0  0  0  0  0  0  0
    4.7796   -5.7359   -4.5552 C   0  0  0  0  0  0  0  0  0  0  0  0
    4.5838   -4.5218   -3.8868 C   0  0  0  0  0  0  0  0  0  0  0  0
    4.1294   -4.4861   -2.5143 C   0  0  0  0  0  0  0  0  0  0  0  0
    3.7051   -3.3118   -1.7643 C   0  0  0  0  0  0  0  0  0  0  0  0
    3.3830   -2.0112   -2.3408 C   0  0  0  0  0  0  0  0  0  0  0  0
    2.6611   -1.0747   -1.5466 C   0  0  0  0  0  0  0  0  0  0  0  0
    3.6198   -1.5467   -3.6760 C   0  0  0  0  0  0  0  0  0  0  0  0
    3.0255   -0.6259   -4.2546 O   0  0  0  0  0  0  0  0  0  0  0  0
    4.8143   -2.0695   -4.4017 N   0  0  0  0  0  0  0  0  0  0  0  0
    5.1260   -3.3728   -4.6068 C   0  0  0  0  0  0  0  0  0  0  0  0
    6.1121   -3.5303   -5.5219 N   0  0  0  0  0  0  0  0  0  0  0  0
    6.4745   -2.3015   -5.8792 C   0  0  0  0  0  0  0  0  0  0  0  0
    7.5051   -1.9484   -6.8166 C   0  0  0  0  0  0  0  0  0  0  0  0
    8.2210   -2.9384   -7.5194 C   0  0  0  0  0  0  0  0  0  0  0  0
    9.2057   -2.5774   -8.4295 C   0  0  0  0  0  0  0  0  0  0  0  0
    9.4839   -1.2185   -8.6411 C   0  0  0  0  0  0  0  0  0  0  0  0
    8.7863   -0.2351   -7.9424 C   0  0  0  0  0  0  0  0  0  0  0  0
    7.7827   -0.5686   -7.0091 C   0  0  0  0  0  0  0  0  0  0  0  0
    7.0359    0.4438   -6.2389 C   0  0  0  0  0  0  0  0  0  0  0  0
    7.3566    1.8066   -6.3492 C   0  0  0  0  0  0  0  0  0  0  0  0
    6.6815    2.7880   -5.6259 C   0  0  0  0  0  0  0  0  0  0  0  0
    5.6351    2.4335   -4.7595 C   0  0  0  0  0  0  0  0  0  0  0  0
    5.2741    1.1069   -4.6253 C   0  0  0  0  0  0  0  0  0  0  0  0
    5.9602    0.0760   -5.3356 C   0  0  0  0  0  0  0  0  0  0  0  0
    5.6894   -1.3149   -5.1900 C   0  0  0  0  0  0  0  0  0  0  0  0
    0.9645    0.3271    2.6046 H   0  0  0  0  0  0  0  0  0  0  0  0
    2.4307   -0.6766    2.5953 H   0  0  0  0  0  0  0  0  0  0  0  0
    0.8514   -1.3972    2.1909 H   0  0  0  0  0  0  0  0  0  0  0  0
   -0.2295    0.9413    0.5140 H   0  0  0  0  0  0  0  0  0  0  0  0
   -0.3307   -0.7646    0.0015 H   0  0  0  0  0  0  0  0  0  0  0  0
    0.3793    0.4494   -1.0846 H   0  0  0  0  0  0  0  0  0  0  0  0
    2.0270    1.9821    1.0959 H   0  0  0  0  0  0  0  0  0  0  0  0
    2.6791    1.5106   -0.4920 H   0  0  0  0  0  0  0  0  0  0  0  0
    3.5203    1.0114    0.9931 H   0  0  0  0  0  0  0  0  0  0  0  0
    2.6289   -2.6476    1.4542 H   0  0  0  0  0  0  0  0  0  0  0  0
    3.3466   -4.8298    1.3237 H   0  0  0  0  0  0  0  0  0  0  0  0
    3.9060   -6.8503    0.0040 H   0  0  0  0  0  0  0  0  0  0  0  0
    4.2439   -7.9015   -2.0318 H   0  0  0  0  0  0  0  0  0  0  0  0
    3.9145   -7.4172   -6.6074 H   0  0  0  0  0  0  0  0  0  0  0  0
    2.7408   -8.2669   -5.5762 H   0  0  0  0  0  0  0  0  0  0  0  0
    3.9028   -9.1951   -6.5605 H   0  0  0  0  0  0  0  0  0  0  0  0
    6.4452   -7.4747   -5.9896 H   0  0  0  0  0  0  0  0  0  0  0  0
    6.3738   -9.2501   -5.9356 H   0  0  0  0  0  0  0  0  0  0  0  0
    6.9690   -8.3357   -4.5247 H   0  0  0  0  0  0  0  0  0  0  0  0
    3.5355   -9.5734   -3.5054 H   0  0  0  0  0  0  0  0  0  0  0  0
    5.2710   -9.6266   -3.0980 H   0  0  0  0  0  0  0  0  0  0  0  0
    4.6735  -10.4452   -4.5547 H   0  0  0  0  0  0  0  0  0  0  0  0
    5.1406   -5.6741   -5.5807 H   0  0  0  0  0  0  0  0  0  0  0  0
    2.3509   -0.1650   -2.0595 H   0  0  0  0  0  0  0  0  0  0  0  0
    7.9779   -3.9848   -7.3276 H   0  0  0  0  0  0  0  0  0  0  0  0
    9.7582   -3.3441   -8.9773 H   0  0  0  0  0  0  0  0  0  0  0  0
   10.2536   -0.9229   -9.3580 H   0  0  0  0  0  0  0  0  0  0  0  0
    9.0327    0.8081   -8.1392 H   0  0  0  0  0  0  0  0  0  0  0  0
    8.1628    2.1204   -7.0110 H   0  0  0  0  0  0  0  0  0  0  0  0
    6.9679    3.8358   -5.7443 H   0  0  0  0  0  0  0  0  0  0  0  0
    5.0944    3.2019   -4.2033 H   0  0  0  0  0  0  0  0  0  0  0  0
    4.4234    0.8333   -4.0089 H   0  0  0  0  0  0  0  0  0  0  0  0
  2  1  1  1
  1 42  1  0
  1 43  1  0
  1 44  1  0
  2  3  1  0
  2  4  1  0
  2  5  1  0
  3 45  1  0
  3 46  1  0
  3 47  1  0
  4 48  1  0
  4 49  1  0
  4 50  1  0
  5  6  2  0
  5 22  1  0
  6  7  1  0
  6 51  1  0
  7  8  2  0
  7 20  1  0
  8  9  1  0
  8 52  1  0
  9 10  2  0
  9 53  1  0
 10 11  1  0
 10 19  1  0
 11 12  2  0
 11 54  1  0
 12 13  1  0
 12 17  1  0
 13 14  1  6
 13 15  1  0
 13 16  1  0
 14 55  1  0
 14 56  1  0
 14 57  1  0
 15 58  1  0
 15 59  1  0
 15 60  1  0
 16 61  1  0
 16 62  1  0
 16 63  1  0
 17 18  2  0
 17 64  1  0
 18 19  1  0
 18 26  1  0
 19 20  2  0
 20 21  1  0
 21 22  2  0
 21 23  1  0
 22 65  1  0
 23 24  2  0
 23 25  1  0
 25 26  1  0
 25 41  1  0
 26 27  2  0
 27 28  1  0
 28 29  1  0
 28 41  2  0
 29 30  2  0
 29 34  1  0
 30 31  1  0
 30 66  1  0
 31 32  2  0
 31 67  1  0
 32 33  1  0
 32 68  1  0
 33 34  2  0
 33 69  1  0
 34 35  1  0
 35 36  1  0
 35 40  2  0
 36 37  2  0
 36 70  1  0
 37 38  1  0
 37 71  1  0
 38 39  2  0
 38 72  1  0
 39 40  1  0
 39 73  1  0
 40 41  1  0
M  END

