
     RDKit          3D

120130  0  0  0  0  0  0  0  0999 V2000
   -0.6007   -4.9448   -5.5953 C   0  0  0  0  0  0  0  0  0  0  0  0
   -0.8461   -3.7036   -4.7755 C   0  0  0  0  0  0  0  0  0  0  0  0
   -0.5015   -3.6434   -3.4172 C   0  0  0  0  0  0  0  0  0  0  0  0
   -0.7198   -2.4851   -2.6671 C   0  0  0  0  0  0  0  0  0  0  0  0
   -1.3004   -1.3515   -3.2584 C   0  0  0  0  0  0  0  0  0  0  0  0
   -1.6121   -0.0954   -2.5019 C   0  0  0  0  0  0  0  0  0  0  0  0
   -2.3495    0.7522   -2.9702 O   0  0  0  0  0  0  0  0  0  0  0  0
   -0.9666    0.1373   -1.1523 C   0  0  0  0  0  0  0  0  0  0  0  0
    0.4307    0.1012   -1.0726 C   0  0  0  0  0  0  0  0  0  0  0  0
    1.1382    0.4780    0.0824 C   0  0  0  0  0  0  0  0  0  0  0  0
    2.6271    0.4886    0.0546 C   0  0  0  0  0  0  0  0  0  0  0  0
    3.3433   -0.5896   -0.4980 C   0  0  0  0  0  0  0  0  0  0  0  0
    4.7369   -0.5749   -0.5524 C   0  0  0  0  0  0  0  0  0  0  0  0
    5.4521    0.5243   -0.0602 C   0  0  0  0  0  0  0  0  0  0  0  0
    6.8844    0.5382   -0.1184 N   0  0  0  0  0  0  0  0  0  0  0  0
    7.5194    1.0662   -1.2568 C   0  0  0  0  0  0  0  0  0  0  0  0
    6.7453    1.6032   -2.3095 C   0  0  0  0  0  0  0  0  0  0  0  0
    7.3460    2.1335   -3.4473 C   0  0  0  0  0  0  0  0  0  0  0  0
    8.7368    2.1420   -3.5643 C   0  0  0  0  0  0  0  0  0  0  0  0
    9.5000    1.6117   -2.5248 C   0  0  0  0  0  0  0  0  0  0  0  0
    8.9293    1.0687   -1.3634 C   0  0  0  0  0  0  0  0  0  0  0  0
    9.8443    0.4957   -0.2723 C   0  0  1  0  0  0  0  0  0  0  0  0
   10.6624   -0.6813   -0.8683 C   0  0  0  0  0  0  0  0  0  0  0  0
   10.8160    1.6050    0.2110 C   0  0  0  0  0  0  0  0  0  0  0  0
    9.0324   -0.0174    0.9255 C   0  0  0  0  0  0  0  0  0  0  0  0
    9.7057   -0.5536    2.0341 C   0  0  0  0  0  0  0  0  0  0  0  0
    9.0399   -1.0449    3.1566 C   0  0  0  0  0  0  0  0  0  0  0  0
    7.6450   -1.0019    3.1803 C   0  0  0  0  0  0  0  0  0  0  0  0
    6.9434   -0.4790    2.0982 C   0  0  0  0  0  0  0  0  0  0  0  0
    7.6192    0.0173    0.9611 C   0  0  0  0  0  0  0  0  0  0  0  0
    4.7509    1.6074    0.4833 C   0  0  0  0  0  0  0  0  0  0  0  0
    3.3565    1.5905    0.5389 C   0  0  0  0  0  0  0  0  0  0  0  0
    0.3855    0.8794    1.2082 C   0  0  0  0  0  0  0  0  0  0  0  0
    0.9943    1.2943    2.5328 C   0  0  0  0  0  0  0  0  0  0  0  0
    0.8097    2.4285    2.9389 O   0  0  0  0  0  0  0  0  0  0  0  0
    1.7458    0.2903    3.3474 C   0  0  0  0  0  0  0  0  0  0  0  0
    1.7693   -1.0804    3.0440 C   0  0  0  0  0  0  0  0  0  0  0  0
    2.4494   -1.9764    3.8699 C   0  0  0  0  0  0  0  0  0  0  0  0
    3.1305   -1.5341    5.0153 C   0  0  0  0  0  0  0  0  0  0  0  0
    3.8947   -2.4976    5.8877 C   0  0  0  0  0  0  0  0  0  0  0  0
    3.0968   -0.1594    5.3166 C   0  0  0  0  0  0  0  0  0  0  0  0
    2.4132    0.7372    4.5023 C   0  0  0  0  0  0  0  0  0  0  0  0
   -1.0121    0.9325    1.1240 C   0  0  0  0  0  0  0  0  0  0  0  0
   -1.7174    0.5658   -0.0309 C   0  0  0  0  0  0  0  0  0  0  0  0
   -3.2058    0.6152   -0.0208 C   0  0  0  0  0  0  0  0  0  0  0  0
   -3.9771   -0.4746   -0.4615 C   0  0  0  0  0  0  0  0  0  0  0  0
   -5.3702   -0.4262   -0.4331 C   0  0  0  0  0  0  0  0  0  0  0  0
   -6.0281    0.7170    0.0374 C   0  0  0  0  0  0  0  0  0  0  0  0
   -7.4604    0.7797    0.0417 N   0  0  0  0  0  0  0  0  0  0  0  0
   -8.1656    0.3505    1.1784 C   0  0  0  0  0  0  0  0  0  0  0  0
   -7.4621   -0.1588    2.2930 C   0  0  0  0  0  0  0  0  0  0  0  0
   -8.1336   -0.5904    3.4329 C   0  0  0  0  0  0  0  0  0  0  0  0
   -9.5267   -0.5249    3.4914 C   0  0  0  0  0  0  0  0  0  0  0  0
  -10.2205   -0.0224    2.3909 C   0  0  0  0  0  0  0  0  0  0  0  0
   -9.5774    0.4209    1.2249 C   0  0  0  0  0  0  0  0  0  0  0  0
  -10.4185    0.9654    0.0616 C   0  0  1  0  0  0  0  0  0  0  0  0
  -11.4076   -0.1348   -0.4072 C   0  0  0  0  0  0  0  0  0  0  0  0
  -11.2188    2.2010    0.5528 C   0  0  0  0  0  0  0  0  0  0  0  0
   -9.5333    1.3811   -1.1219 C   0  0  0  0  0  0  0  0  0  0  0  0
  -10.1331    1.8911   -2.2839 C   0  0  0  0  0  0  0  0  0  0  0  0
   -9.3976    2.2932   -3.3982 C   0  0  0  0  0  0  0  0  0  0  0  0
   -8.0065    2.1849   -3.3589 C   0  0  0  0  0  0  0  0  0  0  0  0
   -7.3770    1.6847   -2.2231 C   0  0  0  0  0  0  0  0  0  0  0  0
   -8.1236    1.2787   -1.0942 C   0  0  0  0  0  0  0  0  0  0  0  0
   -5.2712    1.8033    0.4919 C   0  0  0  0  0  0  0  0  0  0  0  0
   -3.8771    1.7502    0.4668 C   0  0  0  0  0  0  0  0  0  0  0  0
   -1.6629   -1.4129   -4.6174 C   0  0  0  0  0  0  0  0  0  0  0  0
   -1.4325   -2.5644   -5.3609 C   0  0  0  0  0  0  0  0  0  0  0  0
   -1.5294   -5.2950   -6.0753 H   0  0  0  0  0  0  0  0  0  0  0  0
    0.1222   -4.7476   -6.4050 H   0  0  0  0  0  0  0  0  0  0  0  0
   -0.2037   -5.7668   -4.9822 H   0  0  0  0  0  0  0  0  0  0  0  0
   -0.0565   -4.5192   -2.9367 H   0  0  0  0  0  0  0  0  0  0  0  0
   -0.4499   -2.4723   -1.6092 H   0  0  0  0  0  0  0  0  0  0  0  0
    0.9993   -0.1739   -1.9638 H   0  0  0  0  0  0  0  0  0  0  0  0
    2.8018   -1.4611   -0.8739 H   0  0  0  0  0  0  0  0  0  0  0  0
    5.2838   -1.4209   -0.9741 H   0  0  0  0  0  0  0  0  0  0  0  0
    5.6591    1.6056   -2.2322 H   0  0  0  0  0  0  0  0  0  0  0  0
    6.7181    2.5420   -4.2433 H   0  0  0  0  0  0  0  0  0  0  0  0
    9.2232    2.5548   -4.4509 H   0  0  0  0  0  0  0  0  0  0  0  0
   10.5879    1.6190   -2.6213 H   0  0  0  0  0  0  0  0  0  0  0  0
   11.3421   -1.1137   -0.1180 H   0  0  0  0  0  0  0  0  0  0  0  0
   11.2749   -0.3490   -1.7207 H   0  0  0  0  0  0  0  0  0  0  0  0
    9.9939   -1.4810   -1.2220 H   0  0  0  0  0  0  0  0  0  0  0  0
   11.5010    1.2266    0.9847 H   0  0  0  0  0  0  0  0  0  0  0  0
   11.4325    1.9844   -0.6177 H   0  0  0  0  0  0  0  0  0  0  0  0
   10.2585    2.4535    0.6358 H   0  0  0  0  0  0  0  0  0  0  0  0
   10.7972   -0.5893    2.0189 H   0  0  0  0  0  0  0  0  0  0  0  0
    9.6042   -1.4531    3.9979 H   0  0  0  0  0  0  0  0  0  0  0  0
    7.0914   -1.3751    4.0459 H   0  0  0  0  0  0  0  0  0  0  0  0
    5.8555   -0.4520    2.1341 H   0  0  0  0  0  0  0  0  0  0  0  0
    5.3070    2.4702    0.8561 H   0  0  0  0  0  0  0  0  0  0  0  0
    2.8274    2.4559    0.9426 H   0  0  0  0  0  0  0  0  0  0  0  0
    1.2416   -1.4540    2.1644 H   0  0  0  0  0  0  0  0  0  0  0  0
    2.4490   -3.0417    3.6230 H   0  0  0  0  0  0  0  0  0  0  0  0
    3.8471   -2.2074    6.9486 H   0  0  0  0  0  0  0  0  0  0  0  0
    3.5113   -3.5244    5.7924 H   0  0  0  0  0  0  0  0  0  0  0  0
    4.9624   -2.5195    5.6059 H   0  0  0  0  0  0  0  0  0  0  0  0
    3.6126    0.2070    6.2088 H   0  0  0  0  0  0  0  0  0  0  0  0
    2.3756    1.8017    4.7419 H   0  0  0  0  0  0  0  0  0  0  0  0
   -1.5722    1.2457    2.0077 H   0  0  0  0  0  0  0  0  0  0  0  0
   -3.4820   -1.3780   -0.8250 H   0  0  0  0  0  0  0  0  0  0  0  0
   -5.9608   -1.2771   -0.7793 H   0  0  0  0  0  0  0  0  0  0  0  0
   -6.3750   -0.2156    2.2620 H   0  0  0  0  0  0  0  0  0  0  0  0
   -7.5592   -0.9788    4.2779 H   0  0  0  0  0  0  0  0  0  0  0  0
  -10.0680   -0.8589    4.3794 H   0  0  0  0  0  0  0  0  0  0  0  0
  -11.3105    0.0286    2.4414 H   0  0  0  0  0  0  0  0  0  0  0  0
  -10.8630   -1.0237   -0.7603 H   0  0  0  0  0  0  0  0  0  0  0  0
  -12.0740   -0.4471    0.4112 H   0  0  0  0  0  0  0  0  0  0  0  0
  -12.0423    0.2243   -1.2317 H   0  0  0  0  0  0  0  0  0  0  0  0
  -11.8470    2.6139   -0.2513 H   0  0  0  0  0  0  0  0  0  0  0  0
  -10.5383    2.9958    0.8943 H   0  0  0  0  0  0  0  0  0  0  0  0
  -11.8819    1.9377    1.3909 H   0  0  0  0  0  0  0  0  0  0  0  0
  -11.2213    1.9785   -2.3182 H   0  0  0  0  0  0  0  0  0  0  0  0
   -9.9057    2.6853   -4.2822 H   0  0  0  0  0  0  0  0  0  0  0  0
   -7.3994    2.4905   -4.2149 H   0  0  0  0  0  0  0  0  0  0  0  0
   -6.2908    1.6067   -2.2100 H   0  0  0  0  0  0  0  0  0  0  0  0
   -5.7841    2.6963    0.8553 H   0  0  0  0  0  0  0  0  0  0  0  0
   -3.3001    2.6146    0.8034 H   0  0  0  0  0  0  0  0  0  0  0  0
   -2.1309   -0.5346   -5.0665 H   0  0  0  0  0  0  0  0  0  0  0  0
   -1.7149   -2.5898   -6.4175 H   0  0  0  0  0  0  0  0  0  0  0  0
  1  2  1  0
  1 69  1  0
  1 70  1  0
  1 71  1  0
  2  3  2  0
  2 68  1  0
  3  4  1  0
  3 72  1  0
  4  5  2  0
  4 73  1  0
  5  6  1  0
  5 67  1  0
  6  7  2  0
  6  8  1  0
  8  9  2  0
  8 44  1  0
  9 10  1  0
  9 74  1  0
 10 11  1  0
 10 33  2  0
 11 12  2  0
 11 32  1  0
 12 13  1  0
 12 75  1  0
 13 14  2  0
 13 76  1  0
 14 15  1  0
 14 31  1  0
 15 16  1  0
 15 30  1  0
 16 17  2  0
 16 21  1  0
 17 18  1  0
 17 77  1  0
 18 19  2  0
 18 78  1  0
 19 20  1  0
 19 79  1  0
 20 21  2  0
 20 80  1  0
 21 22  1  0
 22 23  1  6
 22 24  1  0
 22 25  1  0
 23 81  1  0
 23 82  1  0
 23 83  1  0
 24 84  1  0
 24 85  1  0
 24 86  1  0
 25 26  2  0
 25 30  1  0
 26 27  1  0
 26 87  1  0
 27 28  2  0
 27 88  1  0
 28 29  1  0
 28 89  1  0
 29 30  2  0
 29 90  1  0
 31 32  2  0
 31 91  1  0
 32 92  1  0
 33 34  1  0
 33 43  1  0
 34 35  2  0
 34 36  1  0
 36 37  2  0
 36 42  1  0
 37 38  1  0
 37 93  1  0
 38 39  2  0
 38 94  1  0
 39 40  1  0
 39 41  1  0
 40 95  1  0
 40 96  1  0
 40 97  1  0
 41 42  2  0
 41 98  1  0
 42 99  1  0
 43 44  2  0
 43100  1  0
 44 45  1  0
 45 46  2  0
 45 66  1  0
 46 47  1  0
 46101  1  0
 47 48  2  0
 47102  1  0
 48 49  1  0
 48 65  1  0
 49 50  1  0
 49 64  1  0
 50 51  2  0
 50 55  1  0
 51 52  1  0
 51103  1  0
 52 53  2  0
 52104  1  0
 53 54  1  0
 53105  1  0
 54 55  2  0
 54106  1  0
 55 56  1  0
 56 57  1  6
 56 58  1  0
 56 59  1  0
 57107  1  0
 57108  1  0
 57109  1  0
 58110  1  0
 58111  1  0
 58112  1  0
 59 60  2  0
 59 64  1  0
 60 61  1  0
 60113  1  0
 61 62  2  0
 61114  1  0
 62 63  1  0
 62115  1  0
 63 64  2  0
 63116  1  0
 65 66  2  0
 65117  1  0
 66118  1  0
 67 68  2  0
 67119  1  0
 68120  1  0
M  END

