
     RDKit          3D

 22 24  0  0  0  0  0  0  0  0999 V2000
    3.8414    0.7323   -0.0007 C   0  0  0  0  0  0  0  0  0  0  0  0
    3.8387   -0.7015   -0.0018 C   0  0  0  0  0  0  0  0  0  0  0  0
    2.6435   -1.3871   -0.0027 C   0  0  0  0  0  0  0  0  0  0  0  0
    1.3962   -0.7063   -0.0025 C   0  0  0  0  0  0  0  0  0  0  0  0
    1.3990    0.7463   -0.0014 C   0  0  0  0  0  0  0  0  0  0  0  0
    2.6488    1.4224   -0.0006 C   0  0  0  0  0  0  0  0  0  0  0  0
   -0.0028    1.7477   -0.0023 S   0  0  0  0  0  0  0  0  0  0  0  0
   -1.4084    0.7517   -0.0004 C   0  0  0  0  0  0  0  0  0  0  0  0
   -2.6556    1.4325    0.0012 C   0  0  0  0  0  0  0  0  0  0  0  0
   -3.8508    0.7469    0.0018 C   0  0  0  0  0  0  0  0  0  0  0  0
   -3.8535   -0.6869    0.0007 C   0  0  0  0  0  0  0  0  0  0  0  0
   -2.6610   -1.3771   -0.0011 C   0  0  0  0  0  0  0  0  0  0  0  0
   -1.4111   -0.7009   -0.0016 C   0  0  0  0  0  0  0  0  0  0  0  0
   -0.0093   -1.7023   -0.0050 S   0  0  0  0  0  0  0  0  0  0  0  0
    4.7864    1.2788    0.0001 H   0  0  0  0  0  0  0  0  0  0  0  0
    4.7816   -1.2516   -0.0018 H   0  0  0  0  0  0  0  0  0  0  0  0
    2.6410   -2.4812   -0.0034 H   0  0  0  0  0  0  0  0  0  0  0  0
    2.6505    2.5165    0.0004 H   0  0  0  0  0  0  0  0  0  0  0  0
   -2.6531    2.5266    0.0023 H   0  0  0  0  0  0  0  0  0  0  0  0
   -4.7938    1.2970    0.0033 H   0  0  0  0  0  0  0  0  0  0  0  0
   -4.7986   -1.2334    0.0013 H   0  0  0  0  0  0  0  0  0  0  0  0
   -2.6626   -2.4711   -0.0017 H   0  0  0  0  0  0  0  0  0  0  0  0
  1  2  2  0
  1  6  1  0
  1 15  1  0
  2  3  1  0
  2 16  1  0
  3  4  2  0
  3 17  1  0
  4  5  1  0
  4 14  1  0
  5  6  2  0
  5  7  1  0
  6 18  1  0
  7  8  1  0
  8  9  2  0
  8 13  1  0
  9 10  1  0
  9 19  1  0
 10 11  2  0
 10 20  1  0
 11 12  1  0
 11 21  1  0
 12 13  2  0
 12 22  1  0
 13 14  1  0
M  END

