
     RDKit          3D

 77 82  0  0  0  0  0  0  0  0999 V2000
    1.0987   -5.0895    4.0736 C   0  0  0  0  0  0  0  0  0  0  0  0
    0.8521   -4.4713    2.7843 N   0  0  0  0  0  0  0  0  0  0  0  0
    1.8441   -4.7476    1.7560 C   0  0  0  0  0  0  0  0  0  0  0  0
    1.6790   -6.1222    1.0939 C   0  0  0  0  0  0  0  0  0  0  0  0
    0.3165   -6.2983    0.5830 N   0  0  0  0  0  0  0  0  0  0  0  0
    0.0786   -7.2821   -0.3901 C   0  0  0  0  0  0  0  0  0  0  0  0
   -1.0751   -8.1016   -0.3579 C   0  0  0  0  0  0  0  0  0  0  0  0
   -1.3074   -9.0446   -1.3609 C   0  0  0  0  0  0  0  0  0  0  0  0
   -0.4066   -9.2172   -2.4081 C   0  0  0  0  0  0  0  0  0  0  0  0
    0.7579   -8.4238   -2.4666 C   0  0  0  0  0  0  0  0  0  0  0  0
    1.6849   -8.6248   -3.5837 C   0  0  0  0  0  0  0  0  0  0  0  0
    2.8439   -7.9669   -3.8174 C   0  0  0  0  0  0  0  0  0  0  0  0
    3.7219   -8.2100   -4.9350 C   0  0  0  0  0  0  0  0  0  0  0  0
    4.8475   -7.5978   -5.2046 N   0  0  0  0  0  0  0  0  0  0  0  0
    5.3057   -8.1794   -6.3582 C   0  0  0  0  0  0  0  0  0  0  0  0
    4.4257   -9.1540   -6.7702 C   0  0  0  0  0  0  0  0  0  0  0  0
    4.3768  -10.0865   -7.8866 C   0  0  0  0  0  0  0  0  0  0  0  0
    3.3232  -11.0103   -8.0189 C   0  0  0  0  0  0  0  0  0  0  0  0
    3.3024  -11.9055   -9.0875 C   0  0  0  0  0  0  0  0  0  0  0  0
    4.3175  -11.9008  -10.0483 C   0  0  0  0  0  0  0  0  0  0  0  0
    4.2592  -12.7780  -11.0991 O   0  0  0  0  0  0  0  0  0  0  0  0
    5.2233  -13.8329  -11.0955 C   0  0  0  0  0  0  0  0  0  0  0  0
    5.0290  -14.7158  -12.3047 C   0  0  0  0  0  0  0  0  0  0  0  0
    6.0975  -15.4971  -12.7703 C   0  0  0  0  0  0  0  0  0  0  0  0
    5.9295  -16.3590  -13.8568 C   0  0  0  0  0  0  0  0  0  0  0  0
    4.6906  -16.4428  -14.5001 C   0  0  0  0  0  0  0  0  0  0  0  0
    3.6243  -15.6606  -14.0473 C   0  0  0  0  0  0  0  0  0  0  0  0
    3.7902  -14.8042  -12.9547 C   0  0  0  0  0  0  0  0  0  0  0  0
    5.3679  -10.9605   -9.9401 C   0  0  0  0  0  0  0  0  0  0  0  0
    6.3932  -10.9424  -10.8485 O   0  0  0  0  0  0  0  0  0  0  0  0
    6.0756  -10.5051  -12.1841 C   0  0  0  0  0  0  0  0  0  0  0  0
    5.9016   -9.0070  -12.2836 C   0  0  0  0  0  0  0  0  0  0  0  0
    6.9624   -8.1486  -11.9491 C   0  0  0  0  0  0  0  0  0  0  0  0
    6.8113   -6.7639  -12.0359 C   0  0  0  0  0  0  0  0  0  0  0  0
    5.5950   -6.2160  -12.4615 C   0  0  0  0  0  0  0  0  0  0  0  0
    4.5339   -7.0602  -12.7957 C   0  0  0  0  0  0  0  0  0  0  0  0
    4.6871   -8.4480  -12.7025 C   0  0  0  0  0  0  0  0  0  0  0  0
    5.3898  -10.0731   -8.8657 C   0  0  0  0  0  0  0  0  0  0  0  0
    3.4104   -9.1692   -5.8523 O   0  0  0  0  0  0  0  0  0  0  0  0
    0.9780   -7.4684   -1.4595 C   0  0  0  0  0  0  0  0  0  0  0  0
   -0.7103   -6.0323    1.5839 C   0  0  0  0  0  0  0  0  0  0  0  0
   -0.4839   -4.6605    2.2420 C   0  0  0  0  0  0  0  0  0  0  0  0
    2.0936   -4.7893    4.4414 H   0  0  0  0  0  0  0  0  0  0  0  0
    1.0637   -6.2012    4.0902 H   0  0  0  0  0  0  0  0  0  0  0  0
    0.3550   -4.7288    4.8029 H   0  0  0  0  0  0  0  0  0  0  0  0
    2.8547   -4.6657    2.1881 H   0  0  0  0  0  0  0  0  0  0  0  0
    1.7558   -3.9734    0.9722 H   0  0  0  0  0  0  0  0  0  0  0  0
    1.9245   -6.9287    1.8190 H   0  0  0  0  0  0  0  0  0  0  0  0
    2.4029   -6.2076    0.2743 H   0  0  0  0  0  0  0  0  0  0  0  0
   -1.7920   -8.0187    0.4578 H   0  0  0  0  0  0  0  0  0  0  0  0
   -2.2069   -9.6640   -1.3092 H   0  0  0  0  0  0  0  0  0  0  0  0
   -0.5943   -9.9628   -3.1843 H   0  0  0  0  0  0  0  0  0  0  0  0
    1.3902   -9.3990   -4.2994 H   0  0  0  0  0  0  0  0  0  0  0  0
    3.2074   -7.1798   -3.1535 H   0  0  0  0  0  0  0  0  0  0  0  0
    6.2372   -7.8712   -6.8293 H   0  0  0  0  0  0  0  0  0  0  0  0
    2.5263  -11.0292   -7.2746 H   0  0  0  0  0  0  0  0  0  0  0  0
    2.4955  -12.6338   -9.1947 H   0  0  0  0  0  0  0  0  0  0  0  0
    5.0973  -14.4257  -10.1679 H   0  0  0  0  0  0  0  0  0  0  0  0
    6.2449  -13.4170  -11.0831 H   0  0  0  0  0  0  0  0  0  0  0  0
    7.0729  -15.4284  -12.2789 H   0  0  0  0  0  0  0  0  0  0  0  0
    6.7718  -16.9611  -14.2076 H   0  0  0  0  0  0  0  0  0  0  0  0
    4.5589  -17.1119  -15.3543 H   0  0  0  0  0  0  0  0  0  0  0  0
    2.6541  -15.7165  -14.5483 H   0  0  0  0  0  0  0  0  0  0  0  0
    2.9608  -14.1886  -12.6030 H   0  0  0  0  0  0  0  0  0  0  0  0
    5.1804  -11.0301  -12.5511 H   0  0  0  0  0  0  0  0  0  0  0  0
    6.9358  -10.8329  -12.7875 H   0  0  0  0  0  0  0  0  0  0  0  0
    7.9126   -8.5756  -11.6159 H   0  0  0  0  0  0  0  0  0  0  0  0
    7.6451   -6.1069  -11.7747 H   0  0  0  0  0  0  0  0  0  0  0  0
    5.4769   -5.1316  -12.5310 H   0  0  0  0  0  0  0  0  0  0  0  0
    3.5805   -6.6391  -13.1250 H   0  0  0  0  0  0  0  0  0  0  0  0
    3.8518   -9.1060  -12.9588 H   0  0  0  0  0  0  0  0  0  0  0  0
    6.2169   -9.3637   -8.8146 H   0  0  0  0  0  0  0  0  0  0  0  0
    1.8611   -6.8338   -1.5258 H   0  0  0  0  0  0  0  0  0  0  0  0
   -0.7429   -6.8310    2.3579 H   0  0  0  0  0  0  0  0  0  0  0  0
   -1.6952   -6.0199    1.0948 H   0  0  0  0  0  0  0  0  0  0  0  0
   -1.2297   -4.5101    3.0394 H   0  0  0  0  0  0  0  0  0  0  0  0
   -0.6589   -3.8831    1.4763 H   0  0  0  0  0  0  0  0  0  0  0  0
  1  2  1  0
  1 43  1  0
  1 44  1  0
  1 45  1  0
  2  3  1  0
  2 42  1  0
  3  4  1  0
  3 46  1  0
  3 47  1  0
  4  5  1  0
  4 48  1  0
  4 49  1  0
  5  6  1  0
  5 41  1  0
  6  7  2  0
  6 40  1  0
  7  8  1  0
  7 50  1  0
  8  9  2  0
  8 51  1  0
  9 10  1  0
  9 52  1  0
 10 11  1  0
 10 40  2  0
 11 12  2  0
 11 53  1  0
 12 13  1  0
 12 54  1  0
 13 14  2  0
 13 39  1  0
 14 15  1  0
 15 16  2  0
 15 55  1  0
 16 17  1  0
 16 39  1  0
 17 18  2  0
 17 38  1  0
 18 19  1  0
 18 56  1  0
 19 20  2  0
 19 57  1  0
 20 21  1  0
 20 29  1  0
 21 22  1  0
 22 23  1  0
 22 58  1  0
 22 59  1  0
 23 24  2  0
 23 28  1  0
 24 25  1  0
 24 60  1  0
 25 26  2  0
 25 61  1  0
 26 27  1  0
 26 62  1  0
 27 28  2  0
 27 63  1  0
 28 64  1  0
 29 30  1  0
 29 38  2  0
 30 31  1  0
 31 32  1  0
 31 65  1  0
 31 66  1  0
 32 33  2  0
 32 37  1  0
 33 34  1  0
 33 67  1  0
 34 35  2  0
 34 68  1  0
 35 36  1  0
 35 69  1  0
 36 37  2  0
 36 70  1  0
 37 71  1  0
 38 72  1  0
 40 73  1  0
 41 42  1  0
 41 74  1  0
 41 75  1  0
 42 76  1  0
 42 77  1  0
M  END

