
     RDKit          3D

 72 75  0  0  0  0  0  0  0  0999 V2000
    0.9653    1.5690    1.3209 C   0  0  0  0  0  0  0  0  0  0  0  0
   -0.1045    2.7932    0.6515 S   0  0  0  0  0  0  0  0  0  0  0  0
   -1.5949    1.9050    0.4128 C   0  0  0  0  0  0  0  0  0  0  0  0
   -2.8089    2.5406    0.4536 C   0  0  0  0  0  0  0  0  0  0  0  0
   -4.1010    1.9766    0.1776 C   0  0  0  0  0  0  0  0  0  0  0  0
   -4.3064    0.6213   -0.2228 C   0  0  0  0  0  0  0  0  0  0  0  0
   -5.5671    0.1218   -0.4659 C   0  0  0  0  0  0  0  0  0  0  0  0
   -6.7488    0.9219   -0.3396 C   0  0  0  0  0  0  0  0  0  0  0  0
   -8.0694    0.3875   -0.5959 C   0  0  0  0  0  0  0  0  0  0  0  0
   -8.3024   -1.0087   -0.8233 C   0  0  0  0  0  0  0  0  0  0  0  0
   -9.5656   -1.5090   -1.0605 C   0  0  0  0  0  0  0  0  0  0  0  0
  -10.7172   -0.6719   -1.0996 C   0  0  0  0  0  0  0  0  0  0  0  0
  -12.0114   -1.2457   -1.3459 C   0  0  0  0  0  0  0  0  0  0  0  0
  -13.2190   -0.5993   -1.3919 C   0  0  0  0  0  0  0  0  0  0  0  0
  -14.6779   -1.4607   -1.8359 S   0  0  0  0  0  0  0  0  0  0  0  0
  -15.9324   -0.5342   -1.0276 C   0  0  0  0  0  0  0  0  0  0  0  0
  -17.2583   -0.6120   -1.3045 C   0  0  0  0  0  0  0  0  0  0  0  0
  -17.8027   -1.5198   -2.3806 C   0  0  0  0  0  0  0  0  0  0  0  0
  -18.8375   -0.9156   -3.3532 C   0  0  0  0  0  0  0  0  0  0  0  0
  -20.1719   -0.5154   -2.7049 C   0  0  0  0  0  0  0  0  0  0  0  0
  -20.2144    0.8773   -2.0480 C   0  0  0  0  0  0  0  0  0  0  0  0
  -18.9455    1.3172   -1.2964 C   0  0  0  0  0  0  0  0  0  0  0  0
  -18.2233    0.2168   -0.4845 C   0  0  0  0  0  0  0  0  0  0  0  0
  -10.4937    0.7213   -0.8816 C   0  0  0  0  0  0  0  0  0  0  0  0
   -9.2330    1.2222   -0.6402 C   0  0  0  0  0  0  0  0  0  0  0  0
   -6.5330    2.2831    0.0554 C   0  0  0  0  0  0  0  0  0  0  0  0
   -5.2706    2.7805    0.3027 C   0  0  0  0  0  0  0  0  0  0  0  0
    2.3184    1.6512    1.3409 C   0  0  0  0  0  0  0  0  0  0  0  0
    3.1209    0.5593    2.0036 C   0  0  0  0  0  0  0  0  0  0  0  0
    4.0367    1.0154    3.1599 C   0  0  0  0  0  0  0  0  0  0  0  0
    5.2003    1.9236    2.7303 C   0  0  0  0  0  0  0  0  0  0  0  0
    4.8907    3.4240    2.5628 C   0  0  0  0  0  0  0  0  0  0  0  0
    3.5670    3.8044    1.8662 C   0  0  0  0  0  0  0  0  0  0  0  0
    3.0655    2.8330    0.7711 C   0  0  0  0  0  0  0  0  0  0  0  0
    0.4507    0.7085    1.7606 H   0  0  0  0  0  0  0  0  0  0  0  0
   -1.4896    0.8458    0.1648 H   0  0  0  0  0  0  0  0  0  0  0  0
   -2.8077    3.6023    0.7291 H   0  0  0  0  0  0  0  0  0  0  0  0
   -3.4466   -0.0405   -0.3521 H   0  0  0  0  0  0  0  0  0  0  0  0
   -5.6525   -0.9173   -0.7857 H   0  0  0  0  0  0  0  0  0  0  0  0
   -7.4684   -1.7102   -0.7909 H   0  0  0  0  0  0  0  0  0  0  0  0
   -9.6929   -2.5843   -1.2184 H   0  0  0  0  0  0  0  0  0  0  0  0
  -12.0196   -2.3295   -1.5146 H   0  0  0  0  0  0  0  0  0  0  0  0
  -13.3232    0.4759   -1.2257 H   0  0  0  0  0  0  0  0  0  0  0  0
  -15.5683    0.1157   -0.2255 H   0  0  0  0  0  0  0  0  0  0  0  0
  -18.2773   -2.3904   -1.8851 H   0  0  0  0  0  0  0  0  0  0  0  0
  -16.9655   -1.9285   -2.9686 H   0  0  0  0  0  0  0  0  0  0  0  0
  -19.0336   -1.6817   -4.1217 H   0  0  0  0  0  0  0  0  0  0  0  0
  -18.3954   -0.0580   -3.8906 H   0  0  0  0  0  0  0  0  0  0  0  0
  -20.4376   -1.2871   -1.9601 H   0  0  0  0  0  0  0  0  0  0  0  0
  -20.9723   -0.5583   -3.4624 H   0  0  0  0  0  0  0  0  0  0  0  0
  -21.0749    0.9026   -1.3568 H   0  0  0  0  0  0  0  0  0  0  0  0
  -20.4324    1.6374   -2.8181 H   0  0  0  0  0  0  0  0  0  0  0  0
  -19.2170    2.1383   -0.6118 H   0  0  0  0  0  0  0  0  0  0  0  0
  -18.2183    1.7517   -2.0028 H   0  0  0  0  0  0  0  0  0  0  0  0
  -18.9738   -0.4430   -0.0088 H   0  0  0  0  0  0  0  0  0  0  0  0
  -17.6666    0.6874    0.3405 H   0  0  0  0  0  0  0  0  0  0  0  0
  -11.3364    1.4162   -0.9151 H   0  0  0  0  0  0  0  0  0  0  0  0
   -9.1279    2.2985   -0.4989 H   0  0  0  0  0  0  0  0  0  0  0  0
   -7.3845    2.9513    0.1877 H   0  0  0  0  0  0  0  0  0  0  0  0
   -5.1592    3.8242    0.6119 H   0  0  0  0  0  0  0  0  0  0  0  0
    3.7645    0.0820    1.2376 H   0  0  0  0  0  0  0  0  0  0  0  0
    2.4390   -0.2254    2.3687 H   0  0  0  0  0  0  0  0  0  0  0  0
    4.4546    0.1041    3.6203 H   0  0  0  0  0  0  0  0  0  0  0  0
    3.4333    1.5041    3.9456 H   0  0  0  0  0  0  0  0  0  0  0  0
    5.6174    1.5236    1.7884 H   0  0  0  0  0  0  0  0  0  0  0  0
    6.0170    1.8342    3.4664 H   0  0  0  0  0  0  0  0  0  0  0  0
    5.7331    3.8741    2.0092 H   0  0  0  0  0  0  0  0  0  0  0  0
    4.9020    3.9072    3.5551 H   0  0  0  0  0  0  0  0  0  0  0  0
    3.6863    4.8066    1.4216 H   0  0  0  0  0  0  0  0  0  0  0  0
    2.7637    3.9088    2.6145 H   0  0  0  0  0  0  0  0  0  0  0  0
    3.9197    2.4783    0.1662 H   0  0  0  0  0  0  0  0  0  0  0  0
    2.4039    3.3801    0.0811 H   0  0  0  0  0  0  0  0  0  0  0  0
  1  2  1  0
  1 28  2  0
  1 35  1  0
  2  3  1  0
  3  4  2  0
  3 36  1  0
  4  5  1  0
  4 37  1  0
  5  6  2  0
  5 27  1  0
  6  7  1  0
  6 38  1  0
  7  8  2  0
  7 39  1  0
  8  9  1  0
  8 26  1  0
  9 10  2  0
  9 25  1  0
 10 11  1  0
 10 40  1  0
 11 12  2  0
 11 41  1  0
 12 13  1  0
 12 24  1  0
 13 14  2  0
 13 42  1  0
 14 15  1  0
 14 43  1  0
 15 16  1  0
 16 17  2  0
 16 44  1  0
 17 18  1  0
 17 23  1  0
 18 19  1  0
 18 45  1  0
 18 46  1  0
 19 20  1  0
 19 47  1  0
 19 48  1  0
 20 21  1  0
 20 49  1  0
 20 50  1  0
 21 22  1  0
 21 51  1  0
 21 52  1  0
 22 23  1  0
 22 53  1  0
 22 54  1  0
 23 55  1  0
 23 56  1  0
 24 25  2  0
 24 57  1  0
 25 58  1  0
 26 27  2  0
 26 59  1  0
 27 60  1  0
 28 29  1  0
 28 34  1  0
 29 30  1  0
 29 61  1  0
 29 62  1  0
 30 31  1  0
 30 63  1  0
 30 64  1  0
 31 32  1  0
 31 65  1  0
 31 66  1  0
 32 33  1  0
 32 67  1  0
 32 68  1  0
 33 34  1  0
 33 69  1  0
 33 70  1  0
 34 71  1  0
 34 72  1  0
M  END

