
     RDKit          3D

 59 65  0  0  0  0  0  0  0  0999 V2000
    4.8965    1.7977    1.1488 O   0  0  0  0  0  0  0  0  0  0  0  0
    3.6817    0.9537    1.1272 S   0  0  1  0  0  0  0  0  0  0  0  0
    2.4322    1.3897    1.7882 O   0  0  0  0  0  0  0  0  0  0  0  0
    3.2626    0.7548   -0.6198 C   0  0  0  0  0  0  0  0  0  0  0  0
    1.9458    0.4397   -0.9895 C   0  0  0  0  0  0  0  0  0  0  0  0
    1.6479    0.1940   -2.3306 C   0  0  0  0  0  0  0  0  0  0  0  0
    2.6525    0.2665   -3.3051 C   0  0  0  0  0  0  0  0  0  0  0  0
    3.9613    0.5976   -2.9299 C   0  0  0  0  0  0  0  0  0  0  0  0
    4.2710    0.8452   -1.5917 C   0  0  0  0  0  0  0  0  0  0  0  0
    4.1022   -0.6174    1.7483 C   0  0  0  0  0  0  0  0  0  0  0  0
    3.0816   -1.4922    2.2510 C   0  0  0  0  0  0  0  0  0  0  0  0
    3.3887   -2.7886    2.6017 C   0  0  0  0  0  0  0  0  0  0  0  0
    4.7226   -3.2701    2.4665 C   0  0  0  0  0  0  0  0  0  0  0  0
    5.0489   -4.6169    2.8805 N   0  0  0  0  0  0  0  0  0  0  0  0
    5.0219   -5.7768    2.0668 C   0  0  0  0  0  0  0  0  0  0  0  0
    4.6859   -5.8634    0.7236 C   0  0  0  0  0  0  0  0  0  0  0  0
    4.7457   -7.1292    0.1190 C   0  0  0  0  0  0  0  0  0  0  0  0
    5.1315   -8.2722    0.8372 C   0  0  0  0  0  0  0  0  0  0  0  0
    5.4675   -8.1876    2.1907 C   0  0  0  0  0  0  0  0  0  0  0  0
    5.4132   -6.9322    2.8182 C   0  0  0  0  0  0  0  0  0  0  0  0
    5.6740   -6.4202    4.1298 C   0  0  0  0  0  0  0  0  0  0  0  0
    5.4400   -5.0042    4.1016 C   0  0  0  0  0  0  0  0  0  0  0  0
    5.7275   -4.4773    5.4046 C   0  0  0  0  0  0  0  0  0  0  0  0
    5.6747   -3.2053    5.9884 C   0  0  0  0  0  0  0  0  0  0  0  0
    6.0187   -3.0802    7.3390 C   0  0  0  0  0  0  0  0  0  0  0  0
    6.3980   -4.2003    8.0898 C   0  0  0  0  0  0  0  0  0  0  0  0
    6.4566   -5.4860    7.5214 C   0  0  0  0  0  0  0  0  0  0  0  0
    6.1295   -5.6068    6.1787 C   0  0  0  0  0  0  0  0  0  0  0  0
    6.0941   -6.7838    5.3683 N   0  0  0  0  0  0  0  0  0  0  0  0
    6.4051   -8.1059    5.8073 C   0  0  0  0  0  0  0  0  0  0  0  0
    5.4436   -9.1188    5.6901 C   0  0  0  0  0  0  0  0  0  0  0  0
    5.7541  -10.4146    6.1082 C   0  0  0  0  0  0  0  0  0  0  0  0
    7.0115  -10.6974    6.6510 C   0  0  0  0  0  0  0  0  0  0  0  0
    7.9646   -9.6811    6.7710 C   0  0  0  0  0  0  0  0  0  0  0  0
    7.6684   -8.3838    6.3470 C   0  0  0  0  0  0  0  0  0  0  0  0
    5.7443   -2.4078    1.9748 C   0  0  0  0  0  0  0  0  0  0  0  0
    5.4444   -1.1101    1.6225 C   0  0  0  0  0  0  0  0  0  0  0  0
    1.1700    0.4149   -0.2221 H   0  0  0  0  0  0  0  0  0  0  0  0
    0.6207   -0.0427   -2.6222 H   0  0  0  0  0  0  0  0  0  0  0  0
    2.4133    0.0785   -4.3549 H   0  0  0  0  0  0  0  0  0  0  0  0
    4.7438    0.6767   -3.6900 H   0  0  0  0  0  0  0  0  0  0  0  0
    5.2788    1.1312   -1.2852 H   0  0  0  0  0  0  0  0  0  0  0  0
    2.0700   -1.1046    2.3782 H   0  0  0  0  0  0  0  0  0  0  0  0
    2.6117   -3.4447    3.0026 H   0  0  0  0  0  0  0  0  0  0  0  0
    4.3907   -4.9723    0.1693 H   0  0  0  0  0  0  0  0  0  0  0  0
    4.4859   -7.2234   -0.9377 H   0  0  0  0  0  0  0  0  0  0  0  0
    5.1686   -9.2393    0.3319 H   0  0  0  0  0  0  0  0  0  0  0  0
    5.7662   -9.0780    2.7464 H   0  0  0  0  0  0  0  0  0  0  0  0
    5.3670   -2.3425    5.3974 H   0  0  0  0  0  0  0  0  0  0  0  0
    5.9857   -2.0980    7.8138 H   0  0  0  0  0  0  0  0  0  0  0  0
    6.6536   -4.0794    9.1448 H   0  0  0  0  0  0  0  0  0  0  0  0
    6.7449   -6.3499    8.1213 H   0  0  0  0  0  0  0  0  0  0  0  0
    4.4570   -8.8853    5.2844 H   0  0  0  0  0  0  0  0  0  0  0  0
    5.0042  -11.2040    6.0194 H   0  0  0  0  0  0  0  0  0  0  0  0
    7.2489  -11.7111    6.9814 H   0  0  0  0  0  0  0  0  0  0  0  0
    8.9505   -9.8997    7.1875 H   0  0  0  0  0  0  0  0  0  0  0  0
    8.4161   -7.5914    6.4162 H   0  0  0  0  0  0  0  0  0  0  0  0
    6.7719   -2.7718    1.8952 H   0  0  0  0  0  0  0  0  0  0  0  0
    6.2249   -0.4333    1.2723 H   0  0  0  0  0  0  0  0  0  0  0  0
  1  2  2  0
  2  3  2  0
  2  4  1  6
  2 10  1  0
  4  5  2  0
  4  9  1  0
  5  6  1  0
  5 38  1  0
  6  7  2  0
  6 39  1  0
  7  8  1  0
  7 40  1  0
  8  9  2  0
  8 41  1  0
  9 42  1  0
 10 11  2  0
 10 37  1  0
 11 12  1  0
 11 43  1  0
 12 13  2  0
 12 44  1  0
 13 14  1  0
 13 36  1  0
 14 15  1  0
 14 22  1  0
 15 16  2  0
 15 20  1  0
 16 17  1  0
 16 45  1  0
 17 18  2  0
 17 46  1  0
 18 19  1  0
 18 47  1  0
 19 20  2  0
 19 48  1  0
 20 21  1  0
 21 22  2  0
 21 29  1  0
 22 23  1  0
 23 24  2  0
 23 28  1  0
 24 25  1  0
 24 49  1  0
 25 26  2  0
 25 50  1  0
 26 27  1  0
 26 51  1  0
 27 28  2  0
 27 52  1  0
 28 29  1  0
 29 30  1  0
 30 31  2  0
 30 35  1  0
 31 32  1  0
 31 53  1  0
 32 33  2  0
 32 54  1  0
 33 34  1  0
 33 55  1  0
 34 35  2  0
 34 56  1  0
 35 57  1  0
 36 37  2  0
 36 58  1  0
 37 59  1  0
M  END

