
     RDKit          3D

112118  0  0  0  0  0  0  0  0999 V2000
    3.0489    4.8045   -1.0993 C   0  0  0  0  0  0  0  0  0  0  0  0
    4.5303    4.4693   -1.2782 C   0  0  0  0  0  0  0  0  0  0  0  0
    4.7879    3.3436   -2.2849 C   0  0  0  0  0  0  0  0  0  0  0  0
    6.2690    3.0006   -2.4689 C   0  0  0  0  0  0  0  0  0  0  0  0
    6.5267    1.8755   -3.4757 C   0  0  0  0  0  0  0  0  0  0  0  0
    8.0084    1.5338   -3.6589 C   0  0  0  0  0  0  0  0  0  0  0  0
    8.2674    0.4097   -4.6665 C   0  0  0  0  0  0  0  0  0  0  0  0
    9.7497    0.0720   -4.8514 C   0  0  0  0  0  0  0  0  0  0  0  0
   10.0097   -1.0495   -5.8614 C   0  0  0  0  0  0  0  0  0  0  0  0
   11.4934   -1.3789   -6.0510 C   0  0  0  0  0  0  0  0  0  0  0  0
   11.7477   -2.4959   -7.0669 C   0  0  0  0  0  0  0  0  0  0  0  0
   13.2397   -2.7914   -7.2439 C   0  0  0  0  0  0  0  0  0  0  0  0
   13.5063   -3.8529   -8.2277 N   0  0  0  0  0  0  0  0  0  0  0  0
   13.5654   -5.1733   -7.7601 C   0  0  0  0  0  0  0  0  0  0  0  0
   13.3994   -5.4289   -6.5807 O   0  0  0  0  0  0  0  0  0  0  0  0
   13.8425   -6.2307   -8.7690 C   0  0  0  0  0  0  0  0  0  0  0  0
   13.9313   -7.5532   -8.3613 C   0  0  0  0  0  0  0  0  0  0  0  0
   14.1915   -8.5677   -9.2924 C   0  0  0  0  0  0  0  0  0  0  0  0
   14.3694   -8.2956  -10.6529 C   0  0  0  0  0  0  0  0  0  0  0  0
   14.6403   -9.3549  -11.6387 C   0  0  0  0  0  0  0  0  0  0  0  0
   14.7276  -10.7045  -11.2819 C   0  0  0  0  0  0  0  0  0  0  0  0
   14.9869  -11.7061  -12.2270 C   0  0  0  0  0  0  0  0  0  0  0  0
   15.1708  -11.3821  -13.5630 C   0  0  0  0  0  0  0  0  0  0  0  0
   15.0922  -10.0269  -13.9721 C   0  0  0  0  0  0  0  0  0  0  0  0
   15.2837   -9.7001  -15.3382 C   0  0  0  0  0  0  0  0  0  0  0  0
   15.2023   -8.3769  -15.7452 C   0  0  0  0  0  0  0  0  0  0  0  0
   14.9327   -7.3635  -14.8156 C   0  0  0  0  0  0  0  0  0  0  0  0
   14.7400   -7.6372  -13.4575 C   0  0  0  0  0  0  0  0  0  0  0  0
   14.4572   -6.5792  -12.4736 C   0  0  0  0  0  0  0  0  0  0  0  0
   14.3522   -5.2318  -12.8336 C   0  0  0  0  0  0  0  0  0  0  0  0
   14.0872   -4.2306  -11.8897 C   0  0  0  0  0  0  0  0  0  0  0  0
   13.9213   -4.5527  -10.5510 C   0  0  0  0  0  0  0  0  0  0  0  0
   14.0169   -5.9058  -10.1382 C   0  0  0  0  0  0  0  0  0  0  0  0
   14.2832   -6.9356  -11.0963 C   0  0  0  0  0  0  0  0  0  0  0  0
   13.6457   -3.4704   -9.5692 C   0  0  0  0  0  0  0  0  0  0  0  0
   13.5467   -2.3023   -9.9008 O   0  0  0  0  0  0  0  0  0  0  0  0
   14.8223   -8.9976  -13.0146 C   0  0  0  0  0  0  0  0  0  0  0  0
   15.5710  -10.7570  -16.3441 C   0  0  0  0  0  0  0  0  0  0  0  0
   15.7374  -10.5018  -17.5238 O   0  0  0  0  0  0  0  0  0  0  0  0
   15.6430  -12.0772  -15.8780 N   0  0  0  0  0  0  0  0  0  0  0  0
   15.9093  -13.1279  -16.8786 C   0  0  0  0  0  0  0  0  0  0  0  0
   17.3895  -13.2824  -17.2480 C   0  0  0  0  0  0  0  0  0  0  0  0
   18.3106  -13.7150  -16.1035 C   0  0  0  0  0  0  0  0  0  0  0  0
   19.7642  -13.9182  -16.5420 C   0  0  0  0  0  0  0  0  0  0  0  0
   20.6938  -14.3587  -15.4072 C   0  0  0  0  0  0  0  0  0  0  0  0
   22.1489  -14.5641  -15.8385 C   0  0  0  0  0  0  0  0  0  0  0  0
   23.0723  -15.0211  -14.7050 C   0  0  0  0  0  0  0  0  0  0  0  0
   24.5288  -15.2240  -15.1326 C   0  0  0  0  0  0  0  0  0  0  0  0
   25.4482  -15.6928  -14.0008 C   0  0  0  0  0  0  0  0  0  0  0  0
   26.9057  -15.8932  -14.4259 C   0  0  0  0  0  0  0  0  0  0  0  0
   27.8234  -16.3699  -13.2955 C   0  0  0  0  0  0  0  0  0  0  0  0
   29.2773  -16.5653  -13.7276 C   0  0  0  0  0  0  0  0  0  0  0  0
   15.4438  -12.4664  -14.5444 C   0  0  0  0  0  0  0  0  0  0  0  0
   15.4943  -13.6375  -14.2134 O   0  0  0  0  0  0  0  0  0  0  0  0
    2.9014    5.6159   -0.3686 H   0  0  0  0  0  0  0  0  0  0  0  0
    2.4797    3.9291   -0.7434 H   0  0  0  0  0  0  0  0  0  0  0  0
    2.5930    5.1272   -2.0505 H   0  0  0  0  0  0  0  0  0  0  0  0
    4.9657    4.1887   -0.3016 H   0  0  0  0  0  0  0  0  0  0  0  0
    5.0771    5.3747   -1.5992 H   0  0  0  0  0  0  0  0  0  0  0  0
    4.3537    3.6241   -3.2630 H   0  0  0  0  0  0  0  0  0  0  0  0
    4.2401    2.4372   -1.9652 H   0  0  0  0  0  0  0  0  0  0  0  0
    6.7025    2.7203   -1.4907 H   0  0  0  0  0  0  0  0  0  0  0  0
    6.8161    3.9074   -2.7881 H   0  0  0  0  0  0  0  0  0  0  0  0
    6.0935    2.1556   -4.4541 H   0  0  0  0  0  0  0  0  0  0  0  0
    5.9800    0.9684   -3.1569 H   0  0  0  0  0  0  0  0  0  0  0  0
    8.4416    1.2533   -2.6807 H   0  0  0  0  0  0  0  0  0  0  0  0
    8.5548    2.4412   -3.9771 H   0  0  0  0  0  0  0  0  0  0  0  0
    7.8327    0.6896   -5.6443 H   0  0  0  0  0  0  0  0  0  0  0  0
    7.7231   -0.4988   -4.3477 H   0  0  0  0  0  0  0  0  0  0  0  0
   10.1847   -0.2093   -3.8742 H   0  0  0  0  0  0  0  0  0  0  0  0
   10.2934    0.9812   -5.1691 H   0  0  0  0  0  0  0  0  0  0  0  0
    9.5720   -0.7702   -6.8377 H   0  0  0  0  0  0  0  0  0  0  0  0
    9.4718   -1.9615   -5.5423 H   0  0  0  0  0  0  0  0  0  0  0  0
   11.9321   -1.6625   -5.0763 H   0  0  0  0  0  0  0  0  0  0  0  0
   12.0306   -0.4662   -6.3693 H   0  0  0  0  0  0  0  0  0  0  0  0
   11.3206   -2.2121   -8.0438 H   0  0  0  0  0  0  0  0  0  0  0  0
   11.2355   -3.4179   -6.7424 H   0  0  0  0  0  0  0  0  0  0  0  0
   13.6765   -3.1207   -6.2925 H   0  0  0  0  0  0  0  0  0  0  0  0
   13.7634   -1.8924   -7.5939 H   0  0  0  0  0  0  0  0  0  0  0  0
   13.7940   -7.7832   -7.3032 H   0  0  0  0  0  0  0  0  0  0  0  0
   14.2537   -9.5922   -8.9267 H   0  0  0  0  0  0  0  0  0  0  0  0
   14.5918  -11.0059  -10.2436 H   0  0  0  0  0  0  0  0  0  0  0  0
   15.0496  -12.7548  -11.9311 H   0  0  0  0  0  0  0  0  0  0  0  0
   15.3526   -8.1457  -16.8012 H   0  0  0  0  0  0  0  0  0  0  0  0
   14.8768   -6.3382  -15.1804 H   0  0  0  0  0  0  0  0  0  0  0  0
   14.4766   -4.9320  -13.8738 H   0  0  0  0  0  0  0  0  0  0  0  0
   14.0079   -3.1837  -12.1882 H   0  0  0  0  0  0  0  0  0  0  0  0
   15.3361  -12.8640  -17.7770 H   0  0  0  0  0  0  0  0  0  0  0  0
   15.5168  -14.0617  -16.4581 H   0  0  0  0  0  0  0  0  0  0  0  0
   17.7481  -12.3378  -17.6905 H   0  0  0  0  0  0  0  0  0  0  0  0
   17.4371  -14.0325  -18.0581 H   0  0  0  0  0  0  0  0  0  0  0  0
   17.9252  -14.6449  -15.6499 H   0  0  0  0  0  0  0  0  0  0  0  0
   18.2822  -12.9591  -15.2981 H   0  0  0  0  0  0  0  0  0  0  0  0
   20.1474  -12.9810  -16.9873 H   0  0  0  0  0  0  0  0  0  0  0  0
   19.7995  -14.6691  -17.3534 H   0  0  0  0  0  0  0  0  0  0  0  0
   20.3083  -15.2964  -14.9656 H   0  0  0  0  0  0  0  0  0  0  0  0
   20.6568  -13.6101  -14.5938 H   0  0  0  0  0  0  0  0  0  0  0  0
   22.5384  -13.6232  -16.2702 H   0  0  0  0  0  0  0  0  0  0  0  0
   22.1850  -15.3052  -16.6587 H   0  0  0  0  0  0  0  0  0  0  0  0
   22.6834  -15.9638  -14.2768 H   0  0  0  0  0  0  0  0  0  0  0  0
   23.0333  -14.2826  -13.8825 H   0  0  0  0  0  0  0  0  0  0  0  0
   24.9205  -14.2792  -15.5535 H   0  0  0  0  0  0  0  0  0  0  0  0
   24.5671  -15.9569  -15.9602 H   0  0  0  0  0  0  0  0  0  0  0  0
   25.0572  -16.6392  -13.5825 H   0  0  0  0  0  0  0  0  0  0  0  0
   25.4076  -14.9619  -13.1715 H   0  0  0  0  0  0  0  0  0  0  0  0
   27.2992  -14.9455  -14.8392 H   0  0  0  0  0  0  0  0  0  0  0  0
   26.9465  -16.6205  -15.2585 H   0  0  0  0  0  0  0  0  0  0  0  0
   27.4298  -17.3178  -12.8851 H   0  0  0  0  0  0  0  0  0  0  0  0
   27.7801  -15.6440  -12.4629 H   0  0  0  0  0  0  0  0  0  0  0  0
   29.3585  -17.3121  -14.5354 H   0  0  0  0  0  0  0  0  0  0  0  0
   29.9066  -16.9108  -12.8917 H   0  0  0  0  0  0  0  0  0  0  0  0
   29.7134  -15.6252  -14.1054 H   0  0  0  0  0  0  0  0  0  0  0  0
  1  2  1  0
  1 55  1  0
  1 56  1  0
  1 57  1  0
  2  3  1  0
  2 58  1  0
  2 59  1  0
  3  4  1  0
  3 60  1  0
  3 61  1  0
  4  5  1  0
  4 62  1  0
  4 63  1  0
  5  6  1  0
  5 64  1  0
  5 65  1  0
  6  7  1  0
  6 66  1  0
  6 67  1  0
  7  8  1  0
  7 68  1  0
  7 69  1  0
  8  9  1  0
  8 70  1  0
  8 71  1  0
  9 10  1  0
  9 72  1  0
  9 73  1  0
 10 11  1  0
 10 74  1  0
 10 75  1  0
 11 12  1  0
 11 76  1  0
 11 77  1  0
 12 13  1  0
 12 78  1  0
 12 79  1  0
 13 14  1  0
 13 35  1  0
 14 15  2  0
 14 16  1  0
 16 17  1  0
 16 33  2  0
 17 18  2  0
 17 80  1  0
 18 19  1  0
 18 81  1  0
 19 20  1  0
 19 34  2  0
 20 21  2  0
 20 37  1  0
 21 22  1  0
 21 82  1  0
 22 23  2  0
 22 83  1  0
 23 24  1  0
 23 53  1  0
 24 25  1  0
 24 37  2  0
 25 26  2  0
 25 38  1  0
 26 27  1  0
 26 84  1  0
 27 28  2  0
 27 85  1  0
 28 29  1  0
 28 37  1  0
 29 30  2  0
 29 34  1  0
 30 31  1  0
 30 86  1  0
 31 32  2  0
 31 87  1  0
 32 33  1  0
 32 35  1  0
 33 34  1  0
 35 36  2  0
 38 39  2  0
 38 40  1  0
 40 41  1  0
 40 53  1  0
 41 42  1  0
 41 88  1  0
 41 89  1  0
 42 43  1  0
 42 90  1  0
 42 91  1  0
 43 44  1  0
 43 92  1  0
 43 93  1  0
 44 45  1  0
 44 94  1  0
 44 95  1  0
 45 46  1  0
 45 96  1  0
 45 97  1  0
 46 47  1  0
 46 98  1  0
 46 99  1  0
 47 48  1  0
 47100  1  0
 47101  1  0
 48 49  1  0
 48102  1  0
 48103  1  0
 49 50  1  0
 49104  1  0
 49105  1  0
 50 51  1  0
 50106  1  0
 50107  1  0
 51 52  1  0
 51108  1  0
 51109  1  0
 52110  1  0
 52111  1  0
 52112  1  0
 53 54  2  0
M  END

