
     RDKit          3D

 48 53  0  0  0  0  0  0  0  0999 V2000
    1.1344    0.4278   -0.9315 C   0  0  0  0  0  0  0  0  0  0  0  0
    2.6209    0.2831   -0.7293 C   0  0  0  0  0  0  0  0  0  0  0  0
    3.2097   -0.9994   -0.6659 C   0  0  0  0  0  0  0  0  0  0  0  0
    4.5824   -1.1462   -0.4778 C   0  0  0  0  0  0  0  0  0  0  0  0
    5.4284   -0.0204   -0.3465 C   0  0  0  0  0  0  0  0  0  0  0  0
    6.7660   -0.1832   -0.1505 N   0  0  0  0  0  0  0  0  0  0  0  0
    7.4991    0.9407   -0.0523 C   0  0  0  0  0  0  0  0  0  0  0  0
    8.9287    0.8069    0.1186 C   0  0  0  0  0  0  0  0  0  0  0  0
    9.7492    1.9562    0.1695 C   0  0  0  0  0  0  0  0  0  0  0  0
    9.2180    3.2633    0.1094 C   0  0  0  0  0  0  0  0  0  0  0  0
   10.0482    4.4234    0.1780 C   0  0  0  0  0  0  0  0  0  0  0  0
    9.4906    5.6828    0.1228 C   0  0  0  0  0  0  0  0  0  0  0  0
    8.0849    5.8220   -0.0094 C   0  0  0  0  0  0  0  0  0  0  0  0
    7.2563    4.7093   -0.0849 C   0  0  0  0  0  0  0  0  0  0  0  0
    7.7894    3.4050   -0.0303 C   0  0  0  0  0  0  0  0  0  0  0  0
    6.9295    2.2437   -0.1321 C   0  0  0  0  0  0  0  0  0  0  0  0
    5.6011    2.4216   -0.3088 N   0  0  0  0  0  0  0  0  0  0  0  0
    4.8435    1.3025   -0.4173 C   0  0  0  0  0  0  0  0  0  0  0  0
    3.4456    1.4094   -0.6033 C   0  0  0  0  0  0  0  0  0  0  0  0
   11.1073    1.8447    0.2664 O   0  0  0  0  0  0  0  0  0  0  0  0
   11.7974    0.6921   -0.0602 C   0  0  0  0  0  0  0  0  0  0  0  0
   12.9892    0.7016    0.0336 O   0  0  0  0  0  0  0  0  0  0  0  0
   10.9425   -0.4673   -0.5168 C   0  0  0  0  0  0  0  0  0  0  0  0
    9.5922   -0.5442    0.2079 C   0  0  1  0  0  0  0  0  0  0  0  0
    9.6745   -0.9410    1.6902 C   0  0  0  0  0  0  0  0  0  0  0  0
   10.8831   -0.9766    2.4116 C   0  0  0  0  0  0  0  0  0  0  0  0
   10.9093   -1.3623    3.7525 C   0  0  0  0  0  0  0  0  0  0  0  0
    9.7136   -1.7070    4.3815 C   0  0  0  0  0  0  0  0  0  0  0  0
    9.7351   -2.0750    5.6655 F   0  0  0  0  0  0  0  0  0  0  0  0
    8.4966   -1.6776    3.6990 C   0  0  0  0  0  0  0  0  0  0  0  0
    8.4826   -1.2885    2.3631 C   0  0  0  0  0  0  0  0  0  0  0  0
    0.8141   -0.0320   -1.8824 H   0  0  0  0  0  0  0  0  0  0  0  0
    0.8265    1.4833   -0.9455 H   0  0  0  0  0  0  0  0  0  0  0  0
    0.5710   -0.0799   -0.1297 H   0  0  0  0  0  0  0  0  0  0  0  0
    2.5790   -1.8871   -0.7658 H   0  0  0  0  0  0  0  0  0  0  0  0
    5.0431   -2.1358   -0.4316 H   0  0  0  0  0  0  0  0  0  0  0  0
   11.1258    4.2887    0.2808 H   0  0  0  0  0  0  0  0  0  0  0  0
   10.1252    6.5697    0.1795 H   0  0  0  0  0  0  0  0  0  0  0  0
    7.6472    6.8228   -0.0560 H   0  0  0  0  0  0  0  0  0  0  0  0
    6.1756    4.8058   -0.1931 H   0  0  0  0  0  0  0  0  0  0  0  0
    3.0255    2.4170   -0.6473 H   0  0  0  0  0  0  0  0  0  0  0  0
   11.5377   -1.3839   -0.4109 H   0  0  0  0  0  0  0  0  0  0  0  0
   10.7558   -0.3237   -1.5959 H   0  0  0  0  0  0  0  0  0  0  0  0
    8.9375   -1.2648   -0.3001 H   0  0  0  0  0  0  0  0  0  0  0  0
   11.8335   -0.7261    1.9395 H   0  0  0  0  0  0  0  0  0  0  0  0
   11.8443   -1.4045    4.3142 H   0  0  0  0  0  0  0  0  0  0  0  0
    7.5801   -1.9569    4.2223 H   0  0  0  0  0  0  0  0  0  0  0  0
    7.5418   -1.2547    1.8093 H   0  0  0  0  0  0  0  0  0  0  0  0
  1  2  1  0
  1 32  1  0
  1 33  1  0
  1 34  1  0
  2  3  2  0
  2 19  1  0
  3  4  1  0
  3 35  1  0
  4  5  2  0
  4 36  1  0
  5  6  1  0
  5 18  1  0
  6  7  2  0
  7  8  1  0
  7 16  1  0
  8  9  2  0
  8 24  1  0
  9 10  1  0
  9 20  1  0
 10 11  1  0
 10 15  2  0
 11 12  2  0
 11 37  1  0
 12 13  1  0
 12 38  1  0
 13 14  2  0
 13 39  1  0
 14 15  1  0
 14 40  1  0
 15 16  1  0
 16 17  2  0
 17 18  1  0
 18 19  2  0
 19 41  1  0
 20 21  1  0
 21 22  2  0
 21 23  1  0
 23 24  1  0
 23 42  1  0
 23 43  1  0
 24 25  1  0
 24 44  1  6
 25 26  2  0
 25 31  1  0
 26 27  1  0
 26 45  1  0
 27 28  2  0
 27 46  1  0
 28 29  1  0
 28 30  1  0
 30 31  2  0
 30 47  1  0
 31 48  1  0
M  END

